/*---------------------------------------------------------------------------*\
| =========                 |                                                 |
| \\      /  F ield         | OpenFOAM: The Open Source CFD Toolbox           |
|  \\    /   O peration     | Version:  4.0                                   |
|   \\  /    A nd           | Web:      www.OpenFOAM.org                      |
|    \\/     M anipulation  |                                                 |
\*---------------------------------------------------------------------------*/
Build  : 4.0-665f1db4c1f1
Exec   : simpleFoam
Date   : Dec 04 2016
Time   : 01:43:15
Host   : "radunz-Aspire-E5-571"
PID    : 9594
Case   : /home/radunz/OpenFOAM/radunz-4.1/run/incompressible/simpleFoam/turbineSitingEmpty
nProcs : 1
sigFpe : Enabling floating point exception trapping (FOAM_SIGFPE).
fileModificationChecking : Monitoring run-time modified files using timeStampMaster
allowSystemOperations : Allowing user-supplied system call operations

// * * * * * * * * * * * * * * * * * * * * * * * * * * * * * * * * * * * * * //
Create time

Create mesh for time = 0


SIMPLE: convergence criteria
    field p	 tolerance 0.001
    field U	 tolerance 0.0001
    field "(k|epsilon)"	 tolerance 0.0001

Reading field p

Reading field U

Reading/calculating face flux field phi

Selecting incompressible transport model Newtonian
Selecting turbulence model type RAS
Selecting RAS turbulence model kEpsilon
kEpsilonCoeffs
{
    Cmu             0.09;
    C1              1.44;
    C2              1.92;
    sigmaEps        1.11;
    C3              -0.33;
    sigmak          1;
}

No MRF models present

Creating finite volume options from "constant/fvOptions"


Starting time loop

Time = 1

smoothSolver:  Solving for Ux, Initial residual = 1, Final residual = 0.0503592984624, No Iterations 1
smoothSolver:  Solving for Uy, Initial residual = 1, Final residual = 0.0608366802072, No Iterations 3
smoothSolver:  Solving for Uz, Initial residual = 1, Final residual = 0.0932662729353, No Iterations 3
GAMG:  Solving for p, Initial residual = 1, Final residual = 0.0365569915757, No Iterations 4
time step continuity errors : sum local = 0.000572598794168, global = -7.21486711086e-05, cumulative = -7.21486711086e-05
smoothSolver:  Solving for epsilon, Initial residual = 0.174262102345, Final residual = 0.0115990793798, No Iterations 3
smoothSolver:  Solving for k, Initial residual = 0.99999999999, Final residual = 0.0846540610379, No Iterations 2
ExecutionTime = 0.92 s  ClockTime = 1 s

Time = 2

smoothSolver:  Solving for Ux, Initial residual = 0.248780695536, Final residual = 0.0157602853659, No Iterations 2
smoothSolver:  Solving for Uy, Initial residual = 0.342832919594, Final residual = 0.023975992193, No Iterations 2
smoothSolver:  Solving for Uz, Initial residual = 0.302466527698, Final residual = 0.0148964194788, No Iterations 3
GAMG:  Solving for p, Initial residual = 0.152016270668, Final residual = 0.013058684757, No Iterations 6
time step continuity errors : sum local = 0.000995398082521, global = -3.55065495676e-05, cumulative = -0.000107655220676
smoothSolver:  Solving for epsilon, Initial residual = 0.0270164094059, Final residual = 0.00193818930719, No Iterations 3
smoothSolver:  Solving for k, Initial residual = 0.398154713925, Final residual = 0.0244068176009, No Iterations 3
ExecutionTime = 1.54 s  ClockTime = 2 s

Time = 3

smoothSolver:  Solving for Ux, Initial residual = 0.392930768457, Final residual = 0.0243086904614, No Iterations 2
smoothSolver:  Solving for Uy, Initial residual = 0.363641229658, Final residual = 0.015171393163, No Iterations 3
smoothSolver:  Solving for Uz, Initial residual = 0.296733184402, Final residual = 0.0115586029322, No Iterations 3
GAMG:  Solving for p, Initial residual = 0.0368927802584, Final residual = 0.0025134699967, No Iterations 3
time step continuity errors : sum local = 0.000632510003014, global = -2.36745421348e-05, cumulative = -0.000131329762811
smoothSolver:  Solving for epsilon, Initial residual = 0.0200798533934, Final residual = 0.00162342749736, No Iterations 3
smoothSolver:  Solving for k, Initial residual = 0.369579289224, Final residual = 0.0237681185245, No Iterations 3
ExecutionTime = 2.12 s  ClockTime = 2 s

Time = 4

smoothSolver:  Solving for Ux, Initial residual = 0.171299322537, Final residual = 0.0118173045973, No Iterations 2
smoothSolver:  Solving for Uy, Initial residual = 0.205475611308, Final residual = 0.00987298170007, No Iterations 3
smoothSolver:  Solving for Uz, Initial residual = 0.16502138554, Final residual = 0.00666273707792, No Iterations 3
GAMG:  Solving for p, Initial residual = 0.0781453349152, Final residual = 0.00632457052728, No Iterations 4
time step continuity errors : sum local = 0.000989815312292, global = 7.63711629173e-05, cumulative = -5.49585998937e-05
smoothSolver:  Solving for epsilon, Initial residual = 0.0130842593118, Final residual = 0.000842267966601, No Iterations 3
smoothSolver:  Solving for k, Initial residual = 0.276778262468, Final residual = 0.0194659679678, No Iterations 3
ExecutionTime = 2.72 s  ClockTime = 3 s

Time = 5

smoothSolver:  Solving for Ux, Initial residual = 0.0665584533317, Final residual = 0.00440314297614, No Iterations 2
smoothSolver:  Solving for Uy, Initial residual = 0.136369381061, Final residual = 0.0134401604837, No Iterations 2
smoothSolver:  Solving for Uz, Initial residual = 0.0951962244018, Final residual = 0.0054919554011, No Iterations 3
GAMG:  Solving for p, Initial residual = 0.137909770684, Final residual = 0.0124705496765, No Iterations 4
time step continuity errors : sum local = 0.000773695847246, global = 4.71665669401e-05, cumulative = -7.79203295364e-06
smoothSolver:  Solving for epsilon, Initial residual = 0.00784889929859, Final residual = 0.000471131111864, No Iterations 3
smoothSolver:  Solving for k, Initial residual = 0.147336501865, Final residual = 0.0114737219872, No Iterations 3
ExecutionTime = 3.3 s  ClockTime = 4 s

Time = 6

smoothSolver:  Solving for Ux, Initial residual = 0.212513738163, Final residual = 0.0149837613126, No Iterations 2
smoothSolver:  Solving for Uy, Initial residual = 0.152193423261, Final residual = 0.00647195261859, No Iterations 3
smoothSolver:  Solving for Uz, Initial residual = 0.143304957258, Final residual = 0.00735248301521, No Iterations 3
GAMG:  Solving for p, Initial residual = 0.0631378912594, Final residual = 0.00357858940759, No Iterations 3
time step continuity errors : sum local = 0.000526352939105, global = 3.93496430282e-05, cumulative = 3.15576100745e-05
smoothSolver:  Solving for epsilon, Initial residual = 0.00755324240154, Final residual = 0.000407808235556, No Iterations 3
smoothSolver:  Solving for k, Initial residual = 0.0853850366718, Final residual = 0.00648702983345, No Iterations 3
ExecutionTime = 3.87 s  ClockTime = 4 s

Time = 7

smoothSolver:  Solving for Ux, Initial residual = 0.137080650443, Final residual = 0.0107580162619, No Iterations 2
smoothSolver:  Solving for Uy, Initial residual = 0.200392357347, Final residual = 0.00878415517806, No Iterations 3
smoothSolver:  Solving for Uz, Initial residual = 0.192114048367, Final residual = 0.00887910064452, No Iterations 3
GAMG:  Solving for p, Initial residual = 0.0968829039096, Final residual = 0.00808202627499, No Iterations 4
time step continuity errors : sum local = 0.000691117525324, global = -6.57493126648e-05, cumulative = -3.41917025903e-05
smoothSolver:  Solving for epsilon, Initial residual = 0.0087394352064, Final residual = 0.000478784038768, No Iterations 3
smoothSolver:  Solving for k, Initial residual = 0.0594131222754, Final residual = 0.00449768175988, No Iterations 3
ExecutionTime = 4.46 s  ClockTime = 5 s

Time = 8

smoothSolver:  Solving for Ux, Initial residual = 0.059280069256, Final residual = 0.00456971780009, No Iterations 2
smoothSolver:  Solving for Uy, Initial residual = 0.210454811283, Final residual = 0.0084393867189, No Iterations 3
smoothSolver:  Solving for Uz, Initial residual = 0.137823333112, Final residual = 0.00732145396758, No Iterations 3
GAMG:  Solving for p, Initial residual = 0.144240719518, Final residual = 0.0113597768629, No Iterations 4
time step continuity errors : sum local = 0.000465026647362, global = -3.31248998311e-05, cumulative = -6.73166024214e-05
smoothSolver:  Solving for epsilon, Initial residual = 0.0100279424622, Final residual = 0.000701489778167, No Iterations 3
smoothSolver:  Solving for k, Initial residual = 0.0507924260703, Final residual = 0.00433259187484, No Iterations 3
ExecutionTime = 5.05 s  ClockTime = 5 s

Time = 9

smoothSolver:  Solving for Ux, Initial residual = 0.107037701005, Final residual = 0.00905008984242, No Iterations 2
smoothSolver:  Solving for Uy, Initial residual = 0.1346944116, Final residual = 0.00643270871818, No Iterations 3
smoothSolver:  Solving for Uz, Initial residual = 0.105160248138, Final residual = 0.00603126826192, No Iterations 3
GAMG:  Solving for p, Initial residual = 0.0718107900498, Final residual = 0.00394549825635, No Iterations 3
time step continuity errors : sum local = 0.000343346571765, global = -3.72844171914e-05, cumulative = -0.000104601019613
smoothSolver:  Solving for epsilon, Initial residual = 0.0118230041712, Final residual = 0.000959753758015, No Iterations 3
smoothSolver:  Solving for k, Initial residual = 0.0567109791913, Final residual = 0.00474513166746, No Iterations 3
ExecutionTime = 5.61 s  ClockTime = 6 s

Time = 10

smoothSolver:  Solving for Ux, Initial residual = 0.0569412797957, Final residual = 0.00210326565943, No Iterations 3
smoothSolver:  Solving for Uy, Initial residual = 0.118638071189, Final residual = 0.00652114294351, No Iterations 3
smoothSolver:  Solving for Uz, Initial residual = 0.130990839476, Final residual = 0.0072556126624, No Iterations 3
GAMG:  Solving for p, Initial residual = 0.101902578776, Final residual = 0.0101448825591, No Iterations 3
time step continuity errors : sum local = 0.000504066996883, global = -3.29439345807e-05, cumulative = -0.000137544954193
smoothSolver:  Solving for epsilon, Initial residual = 0.0118771837387, Final residual = 0.000994915427496, No Iterations 3
smoothSolver:  Solving for k, Initial residual = 0.0516300866376, Final residual = 0.00437934249704, No Iterations 3
ExecutionTime = 6.18 s  ClockTime = 6 s

Time = 11

smoothSolver:  Solving for Ux, Initial residual = 0.0328869392264, Final residual = 0.00296329368687, No Iterations 2
smoothSolver:  Solving for Uy, Initial residual = 0.109547306322, Final residual = 0.00566393678044, No Iterations 3
smoothSolver:  Solving for Uz, Initial residual = 0.0926872736104, Final residual = 0.00601340782935, No Iterations 3
GAMG:  Solving for p, Initial residual = 0.157523894659, Final residual = 0.0144659169436, No Iterations 3
time step continuity errors : sum local = 0.000370622920091, global = 2.32687223391e-05, cumulative = -0.000114276231854
smoothSolver:  Solving for epsilon, Initial residual = 0.00954636179158, Final residual = 0.000863652741394, No Iterations 3
smoothSolver:  Solving for k, Initial residual = 0.0378140779659, Final residual = 0.00335262142075, No Iterations 3
ExecutionTime = 6.74 s  ClockTime = 7 s

Time = 12

smoothSolver:  Solving for Ux, Initial residual = 0.0593031602187, Final residual = 0.00532189826974, No Iterations 2
smoothSolver:  Solving for Uy, Initial residual = 0.0720877680342, Final residual = 0.00383322171908, No Iterations 3
smoothSolver:  Solving for Uz, Initial residual = 0.0501761714982, Final residual = 0.00335387552554, No Iterations 3
GAMG:  Solving for p, Initial residual = 0.0819382554061, Final residual = 0.00450097889594, No Iterations 3
time step continuity errors : sum local = 0.000226941009332, global = 3.01110940148e-05, cumulative = -8.41651378395e-05
smoothSolver:  Solving for epsilon, Initial residual = 0.00767462567376, Final residual = 0.000723784280233, No Iterations 3
smoothSolver:  Solving for k, Initial residual = 0.0284297007298, Final residual = 0.00250273123607, No Iterations 3
ExecutionTime = 7.32 s  ClockTime = 8 s

Time = 13

smoothSolver:  Solving for Ux, Initial residual = 0.0357229636287, Final residual = 0.00134908508939, No Iterations 3
smoothSolver:  Solving for Uy, Initial residual = 0.0830963488837, Final residual = 0.0042670923598, No Iterations 3
smoothSolver:  Solving for Uz, Initial residual = 0.0887578122728, Final residual = 0.00485418431965, No Iterations 3
GAMG:  Solving for p, Initial residual = 0.115758997912, Final residual = 0.00844696620477, No Iterations 3
time step continuity errors : sum local = 0.0002463273093, global = 1.36599895125e-05, cumulative = -7.0505148327e-05
smoothSolver:  Solving for epsilon, Initial residual = 0.00671072015195, Final residual = 0.000651795164365, No Iterations 3
smoothSolver:  Solving for k, Initial residual = 0.0239929222422, Final residual = 0.00206039536302, No Iterations 3
ExecutionTime = 7.89 s  ClockTime = 8 s

Time = 14

smoothSolver:  Solving for Ux, Initial residual = 0.022474182829, Final residual = 0.000844407024573, No Iterations 3
smoothSolver:  Solving for Uy, Initial residual = 0.0930162953009, Final residual = 0.00466294397061, No Iterations 3
smoothSolver:  Solving for Uz, Initial residual = 0.087375478297, Final residual = 0.00519961189573, No Iterations 3
GAMG:  Solving for p, Initial residual = 0.184652210514, Final residual = 0.0145314470226, No Iterations 3
time step continuity errors : sum local = 0.000228863082154, global = -5.14962103521e-05, cumulative = -0.000122001358679
smoothSolver:  Solving for epsilon, Initial residual = 0.00646129229577, Final residual = 0.000317237732552, No Iterations 4
smoothSolver:  Solving for k, Initial residual = 0.0220973989916, Final residual = 0.0019575757034, No Iterations 3
ExecutionTime = 8.46 s  ClockTime = 9 s

Time = 15

smoothSolver:  Solving for Ux, Initial residual = 0.0334584795372, Final residual = 0.0013302055016, No Iterations 3
smoothSolver:  Solving for Uy, Initial residual = 0.0610759314607, Final residual = 0.00324363483069, No Iterations 3
smoothSolver:  Solving for Uz, Initial residual = 0.051671146417, Final residual = 0.00279872627171, No Iterations 3
GAMG:  Solving for p, Initial residual = 0.0895466101108, Final residual = 0.00527037828122, No Iterations 3
time step continuity errors : sum local = 0.000157282258744, global = -2.11199506259e-05, cumulative = -0.000143121309305
smoothSolver:  Solving for epsilon, Initial residual = 0.00670622011576, Final residual = 0.000333885744344, No Iterations 4
smoothSolver:  Solving for k, Initial residual = 0.0217490780594, Final residual = 0.00194434849756, No Iterations 3
ExecutionTime = 9.05 s  ClockTime = 9 s

Time = 16

smoothSolver:  Solving for Ux, Initial residual = 0.019295941272, Final residual = 0.000988249110368, No Iterations 3
smoothSolver:  Solving for Uy, Initial residual = 0.0544247639498, Final residual = 0.0032400973311, No Iterations 3
smoothSolver:  Solving for Uz, Initial residual = 0.0726491247487, Final residual = 0.00443161149286, No Iterations 3
GAMG:  Solving for p, Initial residual = 0.12012882552, Final residual = 0.00701134944979, No Iterations 3
time step continuity errors : sum local = 0.000125285718598, global = -9.49235476061e-06, cumulative = -0.000152613664066
smoothSolver:  Solving for epsilon, Initial residual = 0.00643875788353, Final residual = 0.000331490883269, No Iterations 4
smoothSolver:  Solving for k, Initial residual = 0.0196304196761, Final residual = 0.00179424684768, No Iterations 3
ExecutionTime = 9.62 s  ClockTime = 10 s

Time = 17

smoothSolver:  Solving for Ux, Initial residual = 0.0138417850128, Final residual = 0.000612108892568, No Iterations 3
smoothSolver:  Solving for Uy, Initial residual = 0.0549116479608, Final residual = 0.00326624564872, No Iterations 3
smoothSolver:  Solving for Uz, Initial residual = 0.0691001700807, Final residual = 0.00460784275283, No Iterations 3
GAMG:  Solving for p, Initial residual = 0.214703324126, Final residual = 0.0162296022121, No Iterations 3
time step continuity errors : sum local = 0.000145447527605, global = 3.88701848316e-05, cumulative = -0.000113743479234
smoothSolver:  Solving for epsilon, Initial residual = 0.00556193988121, Final residual = 0.000301617043017, No Iterations 4
smoothSolver:  Solving for k, Initial residual = 0.0162495069057, Final residual = 0.00151457348023, No Iterations 3
ExecutionTime = 10.2 s  ClockTime = 10 s

Time = 18

smoothSolver:  Solving for Ux, Initial residual = 0.0183658067263, Final residual = 0.000750357911205, No Iterations 3
smoothSolver:  Solving for Uy, Initial residual = 0.03877600593, Final residual = 0.00229848388733, No Iterations 3
smoothSolver:  Solving for Uz, Initial residual = 0.034786040086, Final residual = 0.00235298767385, No Iterations 3
GAMG:  Solving for p, Initial residual = 0.106009876376, Final residual = 0.0065575704666, No Iterations 3
time step continuity errors : sum local = 0.0001073521702, global = 1.23808769527e-05, cumulative = -0.000101362602281
smoothSolver:  Solving for epsilon, Initial residual = 0.0047502106685, Final residual = 0.000266466619468, No Iterations 4
smoothSolver:  Solving for k, Initial residual = 0.0141412491008, Final residual = 0.0012812234323, No Iterations 3
ExecutionTime = 10.8 s  ClockTime = 11 s

Time = 19

smoothSolver:  Solving for Ux, Initial residual = 0.0112658776167, Final residual = 0.000584551495624, No Iterations 3
smoothSolver:  Solving for Uy, Initial residual = 0.0414755335309, Final residual = 0.00237091555704, No Iterations 3
smoothSolver:  Solving for Uz, Initial residual = 0.0380861273138, Final residual = 0.00219885265085, No Iterations 3
GAMG:  Solving for p, Initial residual = 0.146636117666, Final residual = 0.00739916547766, No Iterations 3
time step continuity errors : sum local = 7.34545869708e-05, global = 5.9535615271e-06, cumulative = -9.54090407542e-05
smoothSolver:  Solving for epsilon, Initial residual = 0.00425565649072, Final residual = 0.000243189804938, No Iterations 4
smoothSolver:  Solving for k, Initial residual = 0.0129659253336, Final residual = 0.00114720966755, No Iterations 3
ExecutionTime = 11.38 s  ClockTime = 12 s

Time = 20

smoothSolver:  Solving for Ux, Initial residual = 0.00939269787993, Final residual = 0.000488962411286, No Iterations 3
smoothSolver:  Solving for Uy, Initial residual = 0.0435227665401, Final residual = 0.00247194176567, No Iterations 3
smoothSolver:  Solving for Uz, Initial residual = 0.0466251423638, Final residual = 0.00279215503983, No Iterations 3
GAMG:  Solving for p, Initial residual = 0.206907555805, Final residual = 0.0144938424908, No Iterations 3
time step continuity errors : sum local = 9.46718783297e-05, global = -2.6712793058e-05, cumulative = -0.000122121833812
smoothSolver:  Solving for epsilon, Initial residual = 0.00401061115527, Final residual = 0.000231588960757, No Iterations 4
smoothSolver:  Solving for k, Initial residual = 0.0121285960179, Final residual = 0.00107219082362, No Iterations 3
ExecutionTime = 11.97 s  ClockTime = 12 s

Time = 21

smoothSolver:  Solving for Ux, Initial residual = 0.0113728293131, Final residual = 0.000605460829493, No Iterations 3
smoothSolver:  Solving for Uy, Initial residual = 0.0322910132679, Final residual = 0.00190497559722, No Iterations 3
smoothSolver:  Solving for Uz, Initial residual = 0.0340634448062, Final residual = 0.00180005903307, No Iterations 3
GAMG:  Solving for p, Initial residual = 0.111640096674, Final residual = 0.00716403238448, No Iterations 3
time step continuity errors : sum local = 7.63007927195e-05, global = -6.35630456874e-06, cumulative = -0.000128478138381
smoothSolver:  Solving for epsilon, Initial residual = 0.00384898392006, Final residual = 0.000223103167538, No Iterations 4
smoothSolver:  Solving for k, Initial residual = 0.0112660767364, Final residual = 0.0010052498498, No Iterations 3
ExecutionTime = 12.55 s  ClockTime = 13 s

Time = 22

smoothSolver:  Solving for Ux, Initial residual = 0.00721256671257, Final residual = 0.000482912606699, No Iterations 3
smoothSolver:  Solving for Uy, Initial residual = 0.0285904239119, Final residual = 0.00183697257486, No Iterations 3
smoothSolver:  Solving for Uz, Initial residual = 0.0338222572451, Final residual = 0.00198674506516, No Iterations 3
GAMG:  Solving for p, Initial residual = 0.13116529394, Final residual = 0.0066888455927, No Iterations 3
time step continuity errors : sum local = 4.97775320632e-05, global = -3.99724550399e-06, cumulative = -0.000132475383885
smoothSolver:  Solving for epsilon, Initial residual = 0.00361118900123, Final residual = 0.000210290820811, No Iterations 4
smoothSolver:  Solving for k, Initial residual = 0.0101521509926, Final residual = 0.000917131462358, No Iterations 3
ExecutionTime = 13.13 s  ClockTime = 13 s

Time = 23

smoothSolver:  Solving for Ux, Initial residual = 0.00610496062633, Final residual = 0.000362907118606, No Iterations 3
smoothSolver:  Solving for Uy, Initial residual = 0.0271079245153, Final residual = 0.00181919508256, No Iterations 3
smoothSolver:  Solving for Uz, Initial residual = 0.0388307879938, Final residual = 0.00258533867586, No Iterations 3
GAMG:  Solving for p, Initial residual = 0.272452164002, Final residual = 0.0173625035307, No Iterations 3
time step continuity errors : sum local = 5.66998516333e-05, global = 1.5804453968e-05, cumulative = -0.000116670929917
smoothSolver:  Solving for epsilon, Initial residual = 0.00329177657832, Final residual = 0.000193085334797, No Iterations 4
smoothSolver:  Solving for k, Initial residual = 0.00906755464051, Final residual = 0.000815798601048, No Iterations 3
ExecutionTime = 13.71 s  ClockTime = 14 s

Time = 24

smoothSolver:  Solving for Ux, Initial residual = 0.00672909351402, Final residual = 0.000372200521523, No Iterations 3
smoothSolver:  Solving for Uy, Initial residual = 0.0226454727014, Final residual = 0.00148623953349, No Iterations 3
smoothSolver:  Solving for Uz, Initial residual = 0.0259597747542, Final residual = 0.00176811410157, No Iterations 3
GAMG:  Solving for p, Initial residual = 0.136342698597, Final residual = 0.00898176976097, No Iterations 3
time step continuity errors : sum local = 5.14032503098e-05, global = 2.79517890414e-06, cumulative = -0.000113875751013
smoothSolver:  Solving for epsilon, Initial residual = 0.00300017765456, Final residual = 0.000175492732989, No Iterations 4
smoothSolver:  Solving for k, Initial residual = 0.00845535079346, Final residual = 0.000738033594599, No Iterations 3
ExecutionTime = 14.29 s  ClockTime = 15 s

Time = 25

smoothSolver:  Solving for Ux, Initial residual = 0.00485989884494, Final residual = 0.000317224874905, No Iterations 3
smoothSolver:  Solving for Uy, Initial residual = 0.0231298593399, Final residual = 0.00148827315614, No Iterations 3
smoothSolver:  Solving for Uz, Initial residual = 0.0181971595627, Final residual = 0.00109012270446, No Iterations 3
GAMG:  Solving for p, Initial residual = 0.158831853884, Final residual = 0.00839296093327, No Iterations 3
time step continuity errors : sum local = 3.49142403993e-05, global = 2.23919386766e-06, cumulative = -0.000111636557145
smoothSolver:  Solving for epsilon, Initial residual = 0.00276803643516, Final residual = 0.000161051859124, No Iterations 4
smoothSolver:  Solving for k, Initial residual = 0.00805321070799, Final residual = 0.000686226192042, No Iterations 3
ExecutionTime = 14.86 s  ClockTime = 15 s

Time = 26

smoothSolver:  Solving for Ux, Initial residual = 0.00442371282515, Final residual = 0.000301502747573, No Iterations 3
smoothSolver:  Solving for Uy, Initial residual = 0.0224198460473, Final residual = 0.00148625048033, No Iterations 3
smoothSolver:  Solving for Uz, Initial residual = 0.0232249236692, Final residual = 0.00139158269849, No Iterations 3
GAMG:  Solving for p, Initial residual = 0.187157855191, Final residual = 0.010792495095, No Iterations 3
time step continuity errors : sum local = 3.62005395486e-05, global = -9.35785070797e-06, cumulative = -0.000120994407853
smoothSolver:  Solving for epsilon, Initial residual = 0.00258942624003, Final residual = 0.000149718509489, No Iterations 4
smoothSolver:  Solving for k, Initial residual = 0.00769422127353, Final residual = 0.000645842865756, No Iterations 3
ExecutionTime = 15.44 s  ClockTime = 16 s

Time = 27

smoothSolver:  Solving for Ux, Initial residual = 0.00467670110883, Final residual = 0.000326761871314, No Iterations 3
smoothSolver:  Solving for Uy, Initial residual = 0.0185024463395, Final residual = 0.00126864098502, No Iterations 3
smoothSolver:  Solving for Uz, Initial residual = 0.0217055705496, Final residual = 0.00120760859254, No Iterations 3
GAMG:  Solving for p, Initial residual = 0.115075229567, Final residual = 0.0075231535259, No Iterations 3
time step continuity errors : sum local = 3.62285485019e-05, global = -1.47511673467e-06, cumulative = -0.000122469524588
smoothSolver:  Solving for epsilon, Initial residual = 0.00243324684287, Final residual = 0.0001397567344, No Iterations 4
smoothSolver:  Solving for k, Initial residual = 0.00731694992708, Final residual = 0.000607633865206, No Iterations 3
ExecutionTime = 16.01 s  ClockTime = 16 s

Time = 28

smoothSolver:  Solving for Ux, Initial residual = 0.00340695287406, Final residual = 0.0002781077686, No Iterations 3
smoothSolver:  Solving for Uy, Initial residual = 0.0173547631834, Final residual = 0.00123590850444, No Iterations 3
smoothSolver:  Solving for Uz, Initial residual = 0.0188286769819, Final residual = 0.00107856947633, No Iterations 3
GAMG:  Solving for p, Initial residual = 0.113616247592, Final residual = 0.00619384863948, No Iterations 3
time step continuity errors : sum local = 2.53021099253e-05, global = -3.91162004317e-07, cumulative = -0.000122860686592
smoothSolver:  Solving for epsilon, Initial residual = 0.00227290166087, Final residual = 0.00012942930653, No Iterations 4
smoothSolver:  Solving for k, Initial residual = 0.00692317938418, Final residual = 0.000568580677581, No Iterations 3
ExecutionTime = 16.6 s  ClockTime = 17 s

Time = 29

smoothSolver:  Solving for Ux, Initial residual = 0.00306583597675, Final residual = 0.000235438555964, No Iterations 3
smoothSolver:  Solving for Uy, Initial residual = 0.015926231542, Final residual = 0.00118140188242, No Iterations 3
smoothSolver:  Solving for Uz, Initial residual = 0.0192748755089, Final residual = 0.00126298827872, No Iterations 3
GAMG:  Solving for p, Initial residual = 0.186137395335, Final residual = 0.0101095673749, No Iterations 3
time step continuity errors : sum local = 2.33258735626e-05, global = 5.87116470534e-06, cumulative = -0.000116989521887
smoothSolver:  Solving for epsilon, Initial residual = 0.0021123399802, Final residual = 0.000118473040725, No Iterations 4
smoothSolver:  Solving for k, Initial residual = 0.00664726439101, Final residual = 0.000534172236503, No Iterations 3
ExecutionTime = 17.18 s  ClockTime = 17 s

Time = 30

smoothSolver:  Solving for Ux, Initial residual = 0.0031605055613, Final residual = 0.000230163735767, No Iterations 3
smoothSolver:  Solving for Uy, Initial residual = 0.0139692780831, Final residual = 0.00104033182112, No Iterations 3
smoothSolver:  Solving for Uz, Initial residual = 0.0162525884505, Final residual = 0.00112392780571, No Iterations 3
GAMG:  Solving for p, Initial residual = 0.147626424336, Final residual = 0.00914846449395, No Iterations 3
time step continuity errors : sum local = 2.33905637759e-05, global = 3.08659567316e-06, cumulative = -0.000113902926214
smoothSolver:  Solving for epsilon, Initial residual = 0.00196565786933, Final residual = 0.000107825767313, No Iterations 4
smoothSolver:  Solving for k, Initial residual = 0.00652822357997, Final residual = 0.0005113921114, No Iterations 3
ExecutionTime = 17.75 s  ClockTime = 18 s

Time = 31

smoothSolver:  Solving for Ux, Initial residual = 0.00271735445119, Final residual = 0.000215052906917, No Iterations 3
smoothSolver:  Solving for Uy, Initial residual = 0.0137989034994, Final residual = 0.00102235289039, No Iterations 3
smoothSolver:  Solving for Uz, Initial residual = 0.0111319876427, Final residual = 0.000717256760517, No Iterations 3
GAMG:  Solving for p, Initial residual = 0.140022196839, Final residual = 0.00769676544414, No Iterations 3
time step continuity errors : sum local = 1.74239011395e-05, global = -3.43394393366e-07, cumulative = -0.000114246320607
smoothSolver:  Solving for epsilon, Initial residual = 0.00183159854013, Final residual = 9.82987660202e-05, No Iterations 4
smoothSolver:  Solving for k, Initial residual = 0.00643883290913, Final residual = 0.000495134830057, No Iterations 3
ExecutionTime = 18.34 s  ClockTime = 19 s

Time = 32

smoothSolver:  Solving for Ux, Initial residual = 0.00254951396079, Final residual = 0.000209796977899, No Iterations 3
smoothSolver:  Solving for Uy, Initial residual = 0.0133364359784, Final residual = 0.00101291476688, No Iterations 3
smoothSolver:  Solving for Uz, Initial residual = 0.0122918830908, Final residual = 0.000737753362166, No Iterations 3
GAMG:  Solving for p, Initial residual = 0.130051457706, Final residual = 0.00694649362791, No Iterations 3
time step continuity errors : sum local = 1.64526255825e-05, global = -3.92495206335e-06, cumulative = -0.00011817127267
smoothSolver:  Solving for epsilon, Initial residual = 0.00170913544958, Final residual = 9.00393563763e-05, No Iterations 4
smoothSolver:  Solving for k, Initial residual = 0.00633037706742, Final residual = 0.000480360985744, No Iterations 3
ExecutionTime = 18.91 s  ClockTime = 19 s

Time = 33

smoothSolver:  Solving for Ux, Initial residual = 0.00244840497199, Final residual = 0.00020944196418, No Iterations 3
smoothSolver:  Solving for Uy, Initial residual = 0.0115421691755, Final residual = 0.000905714178043, No Iterations 3
smoothSolver:  Solving for Uz, Initial residual = 0.0133885683009, Final residual = 0.000776592861197, No Iterations 3
GAMG:  Solving for p, Initial residual = 0.095452333738, Final residual = 0.00541036904409, No Iterations 3
time step continuity errors : sum local = 1.58591078173e-05, global = -2.71271919883e-06, cumulative = -0.000120883991869
smoothSolver:  Solving for epsilon, Initial residual = 0.0015985022174, Final residual = 8.26967281638e-05, No Iterations 4
smoothSolver:  Solving for k, Initial residual = 0.00622119244615, Final residual = 0.00046740399311, No Iterations 3
ExecutionTime = 19.5 s  ClockTime = 20 s

Time = 34

smoothSolver:  Solving for Ux, Initial residual = 0.00200570445825, Final residual = 0.000187348118595, No Iterations 3
smoothSolver:  Solving for Uy, Initial residual = 0.0111638626215, Final residual = 0.000889671914277, No Iterations 3
smoothSolver:  Solving for Uz, Initial residual = 0.0123067239077, Final residual = 0.000717159118101, No Iterations 3
GAMG:  Solving for p, Initial residual = 0.0822903515563, Final residual = 0.00454757134436, No Iterations 3
time step continuity errors : sum local = 1.28453420496e-05, global = 7.28543386888e-07, cumulative = -0.000120155448482
smoothSolver:  Solving for epsilon, Initial residual = 0.0014967672274, Final residual = 7.5826815726e-05, No Iterations 4
smoothSolver:  Solving for k, Initial residual = 0.00613578129452, Final residual = 0.000457705726565, No Iterations 3
ExecutionTime = 20.07 s  ClockTime = 20 s

Time = 35

smoothSolver:  Solving for Ux, Initial residual = 0.0018677581773, Final residual = 0.000171065015478, No Iterations 3
smoothSolver:  Solving for Uy, Initial residual = 0.0104765237822, Final residual = 0.000865189326177, No Iterations 3
smoothSolver:  Solving for Uz, Initial residual = 0.0109087975359, Final residual = 0.000705707903619, No Iterations 3
GAMG:  Solving for p, Initial residual = 0.0926599543147, Final residual = 0.00492545982547, No Iterations 3
time step continuity errors : sum local = 1.15603276638e-05, global = 2.83813444435e-06, cumulative = -0.000117317314038
smoothSolver:  Solving for epsilon, Initial residual = 0.00140376532301, Final residual = 6.9239360879e-05, No Iterations 4
smoothSolver:  Solving for k, Initial residual = 0.00609253176115, Final residual = 0.000452175530779, No Iterations 3
ExecutionTime = 20.64 s  ClockTime = 21 s

Time = 36

smoothSolver:  Solving for Ux, Initial residual = 0.00193490332456, Final residual = 0.000168886786382, No Iterations 3
smoothSolver:  Solving for Uy, Initial residual = 0.00948514032493, Final residual = 0.000793113866146, No Iterations 3
smoothSolver:  Solving for Uz, Initial residual = 0.00917865727417, Final residual = 0.000637151666233, No Iterations 3
GAMG:  Solving for p, Initial residual = 0.102943536958, Final residual = 0.00554038154477, No Iterations 3
time step continuity errors : sum local = 1.07547688752e-05, global = 1.60406265723e-06, cumulative = -0.000115713251381
smoothSolver:  Solving for epsilon, Initial residual = 0.00131957264215, Final residual = 0.000128934363563, No Iterations 3
smoothSolver:  Solving for k, Initial residual = 0.00609266167395, Final residual = 0.00045061187663, No Iterations 3
ExecutionTime = 21.22 s  ClockTime = 22 s

Time = 37

smoothSolver:  Solving for Ux, Initial residual = 0.0019234876144, Final residual = 0.000168124261633, No Iterations 3
smoothSolver:  Solving for Uy, Initial residual = 0.00920816457473, Final residual = 0.000771856403541, No Iterations 3
smoothSolver:  Solving for Uz, Initial residual = 0.00720397608561, Final residual = 0.000491164144618, No Iterations 3
GAMG:  Solving for p, Initial residual = 0.0908256580556, Final residual = 0.00543907256195, No Iterations 3
time step continuity errors : sum local = 1.00825836406e-05, global = -1.2798015167e-07, cumulative = -0.000115841231532
smoothSolver:  Solving for epsilon, Initial residual = 0.001252544858, Final residual = 0.00011932630399, No Iterations 3
smoothSolver:  Solving for k, Initial residual = 0.00611149953831, Final residual = 0.000450821558205, No Iterations 3
ExecutionTime = 21.8 s  ClockTime = 22 s

Time = 38

smoothSolver:  Solving for Ux, Initial residual = 0.0018404951083, Final residual = 0.000164288626569, No Iterations 3
smoothSolver:  Solving for Uy, Initial residual = 0.00904849832182, Final residual = 0.000764058170213, No Iterations 3
smoothSolver:  Solving for Uz, Initial residual = 0.00764179804161, Final residual = 0.000475617309832, No Iterations 3
GAMG:  Solving for p, Initial residual = 0.0792152554311, Final residual = 0.00428815249826, No Iterations 3
time step continuity errors : sum local = 8.80297173569e-06, global = -1.95951733998e-06, cumulative = -0.000117800748872
smoothSolver:  Solving for epsilon, Initial residual = 0.00119172563783, Final residual = 0.000111121761373, No Iterations 3
smoothSolver:  Solving for k, Initial residual = 0.00611910961483, Final residual = 0.000450596129391, No Iterations 3
ExecutionTime = 22.36 s  ClockTime = 23 s

Time = 39

smoothSolver:  Solving for Ux, Initial residual = 0.00170525795177, Final residual = 0.000157443810742, No Iterations 3
smoothSolver:  Solving for Uy, Initial residual = 0.00825561328454, Final residual = 0.000712764902408, No Iterations 3
smoothSolver:  Solving for Uz, Initial residual = 0.00887737049339, Final residual = 0.00052945174987, No Iterations 3
GAMG:  Solving for p, Initial residual = 0.067925819587, Final residual = 0.00350320067469, No Iterations 3
time step continuity errors : sum local = 8.00412987323e-06, global = -1.28766003491e-06, cumulative = -0.000119088408907
smoothSolver:  Solving for epsilon, Initial residual = 0.00113741003754, Final residual = 0.000103975811146, No Iterations 3
smoothSolver:  Solving for k, Initial residual = 0.00611582456255, Final residual = 0.000449851116411, No Iterations 3
ExecutionTime = 22.94 s  ClockTime = 23 s

Time = 40

smoothSolver:  Solving for Ux, Initial residual = 0.00152108918307, Final residual = 0.000146195759952, No Iterations 3
smoothSolver:  Solving for Uy, Initial residual = 0.00797695616432, Final residual = 0.00069096692262, No Iterations 3
smoothSolver:  Solving for Uz, Initial residual = 0.00879366768919, Final residual = 0.000521994572794, No Iterations 3
GAMG:  Solving for p, Initial residual = 0.0565905937088, Final residual = 0.00325370779811, No Iterations 3
time step continuity errors : sum local = 7.61919384918e-06, global = -2.25667220659e-08, cumulative = -0.000119110975629
smoothSolver:  Solving for epsilon, Initial residual = 0.00108896155014, Final residual = 9.7547281879e-05, No Iterations 3
smoothSolver:  Solving for k, Initial residual = 0.00611048149893, Final residual = 0.000449578742711, No Iterations 3
ExecutionTime = 23.51 s  ClockTime = 24 s

Time = 41

smoothSolver:  Solving for Ux, Initial residual = 0.00146164483938, Final residual = 0.000139003635997, No Iterations 3
smoothSolver:  Solving for Uy, Initial residual = 0.00773921701978, Final residual = 0.000683503613748, No Iterations 3
smoothSolver:  Solving for Uz, Initial residual = 0.00779591389207, Final residual = 0.000487851807684, No Iterations 3
GAMG:  Solving for p, Initial residual = 0.0553220272633, Final residual = 0.002784033714, No Iterations 3
time step continuity errors : sum local = 6.17474628508e-06, global = 1.06401795643e-06, cumulative = -0.000118046957673
smoothSolver:  Solving for epsilon, Initial residual = 0.00104543675305, Final residual = 9.16746370351e-05, No Iterations 3
smoothSolver:  Solving for k, Initial residual = 0.00611488513134, Final residual = 0.000450581660132, No Iterations 3
ExecutionTime = 24.08 s  ClockTime = 24 s

Time = 42

smoothSolver:  Solving for Ux, Initial residual = 0.00154590437453, Final residual = 0.000139794310025, No Iterations 3
smoothSolver:  Solving for Uy, Initial residual = 0.00723159625, Final residual = 0.000653203519397, No Iterations 3
smoothSolver:  Solving for Uz, Initial residual = 0.00621666006655, Final residual = 0.000418745912963, No Iterations 3
GAMG:  Solving for p, Initial residual = 0.0577348234071, Final residual = 0.00314382590084, No Iterations 3
time step continuity errors : sum local = 6.3639829564e-06, global = 6.53761680662e-07, cumulative = -0.000117393195992
smoothSolver:  Solving for epsilon, Initial residual = 0.00100708275238, Final residual = 8.63520897025e-05, No Iterations 3
smoothSolver:  Solving for k, Initial residual = 0.006131739739, Final residual = 0.000452982621714, No Iterations 3
ExecutionTime = 24.65 s  ClockTime = 25 s

Time = 43

smoothSolver:  Solving for Ux, Initial residual = 0.00161414053723, Final residual = 0.000141543364768, No Iterations 3
smoothSolver:  Solving for Uy, Initial residual = 0.0070059464765, Final residual = 0.000635885062666, No Iterations 3
smoothSolver:  Solving for Uz, Initial residual = 0.00509232808033, Final residual = 0.000347232336064, No Iterations 3
GAMG:  Solving for p, Initial residual = 0.0548591257593, Final residual = 0.00329962068595, No Iterations 3
time step continuity errors : sum local = 6.3124102949e-06, global = 6.93971042826e-07, cumulative = -0.000116699224949
smoothSolver:  Solving for epsilon, Initial residual = 0.000974552177707, Final residual = 8.17685598329e-05, No Iterations 3
smoothSolver:  Solving for k, Initial residual = 0.0061567198339, Final residual = 0.000456029978529, No Iterations 3
ExecutionTime = 25.22 s  ClockTime = 26 s

Time = 44

smoothSolver:  Solving for Ux, Initial residual = 0.0015823361358, Final residual = 0.000139258376222, No Iterations 3
smoothSolver:  Solving for Uy, Initial residual = 0.00691811891722, Final residual = 0.000628559800311, No Iterations 3
smoothSolver:  Solving for Uz, Initial residual = 0.00553036790926, Final residual = 0.000348072294223, No Iterations 3
GAMG:  Solving for p, Initial residual = 0.0506681079083, Final residual = 0.0027717981002, No Iterations 3
time step continuity errors : sum local = 5.3959913603e-06, global = -5.8228543819e-07, cumulative = -0.000117281510388
smoothSolver:  Solving for epsilon, Initial residual = 0.000948030909839, Final residual = 7.79350175482e-05, No Iterations 3
smoothSolver:  Solving for k, Initial residual = 0.00618007649743, Final residual = 0.000458973398449, No Iterations 3
ExecutionTime = 25.8 s  ClockTime = 26 s

Time = 45

smoothSolver:  Solving for Ux, Initial residual = 0.00150954046963, Final residual = 0.000134243470304, No Iterations 3
smoothSolver:  Solving for Uy, Initial residual = 0.00661325936679, Final residual = 0.000606026902344, No Iterations 3
smoothSolver:  Solving for Uz, Initial residual = 0.00656249497832, Final residual = 0.000393704793802, No Iterations 3
GAMG:  Solving for p, Initial residual = 0.0475287623049, Final residual = 0.00265685181823, No Iterations 3
time step continuity errors : sum local = 5.3930360903e-06, global = -8.24656379246e-07, cumulative = -0.000118106166767
smoothSolver:  Solving for epsilon, Initial residual = 0.000926410027526, Final residual = 7.46812718485e-05, No Iterations 3
smoothSolver:  Solving for k, Initial residual = 0.00620030878012, Final residual = 0.000461784292035, No Iterations 3
ExecutionTime = 26.37 s  ClockTime = 27 s

Time = 46

smoothSolver:  Solving for Ux, Initial residual = 0.00143273336408, Final residual = 0.000128461110522, No Iterations 3
smoothSolver:  Solving for Uy, Initial residual = 0.00634681284241, Final residual = 0.000582660472502, No Iterations 3
smoothSolver:  Solving for Uz, Initial residual = 0.00680355160114, Final residual = 0.000402845711346, No Iterations 3
GAMG:  Solving for p, Initial residual = 0.0433635998183, Final residual = 0.0024505557012, No Iterations 3
time step continuity errors : sum local = 5.09418282177e-06, global = -1.29932749452e-07, cumulative = -0.000118236099516
smoothSolver:  Solving for epsilon, Initial residual = 0.000908107365073, Final residual = 7.17419079981e-05, No Iterations 3
smoothSolver:  Solving for k, Initial residual = 0.00621913135779, Final residual = 0.000464824731645, No Iterations 3
ExecutionTime = 26.94 s  ClockTime = 27 s

Time = 47

smoothSolver:  Solving for Ux, Initial residual = 0.00139439574336, Final residual = 0.000124242065475, No Iterations 3
smoothSolver:  Solving for Uy, Initial residual = 0.0062267039415, Final residual = 0.000572888406158, No Iterations 3
smoothSolver:  Solving for Uz, Initial residual = 0.00630640681247, Final residual = 0.000378450627679, No Iterations 3
GAMG:  Solving for p, Initial residual = 0.0405084673766, Final residual = 0.00377070510069, No Iterations 2
time step continuity errors : sum local = 7.76740568823e-06, global = 6.84256252141e-08, cumulative = -0.000118167673891
smoothSolver:  Solving for epsilon, Initial residual = 0.000891361750033, Final residual = 6.89386610513e-05, No Iterations 3
smoothSolver:  Solving for k, Initial residual = 0.0062397515799, Final residual = 0.000468478455619, No Iterations 3
ExecutionTime = 27.48 s  ClockTime = 28 s

Time = 48

smoothSolver:  Solving for Ux, Initial residual = 0.00140899037604, Final residual = 0.000122733464517, No Iterations 3
smoothSolver:  Solving for Uy, Initial residual = 0.00603584890587, Final residual = 0.000561309512848, No Iterations 3
smoothSolver:  Solving for Uz, Initial residual = 0.00543504804405, Final residual = 0.000339824082234, No Iterations 3
GAMG:  Solving for p, Initial residual = 0.0406335092377, Final residual = 0.00227187073351, No Iterations 3
time step continuity errors : sum local = 4.50987480183e-06, global = 4.58058160604e-07, cumulative = -0.00011770961573
smoothSolver:  Solving for epsilon, Initial residual = 0.000875305628601, Final residual = 6.61650494284e-05, No Iterations 3
smoothSolver:  Solving for k, Initial residual = 0.00626555049544, Final residual = 0.00047282004615, No Iterations 3
ExecutionTime = 28.06 s  ClockTime = 28 s

Time = 49

smoothSolver:  Solving for Ux, Initial residual = 0.00144163856117, Final residual = 0.000122532855336, No Iterations 3
smoothSolver:  Solving for Uy, Initial residual = 0.00587350066003, Final residual = 0.000549560449294, No Iterations 3
smoothSolver:  Solving for Uz, Initial residual = 0.004692155682, Final residual = 0.000299526788568, No Iterations 3
GAMG:  Solving for p, Initial residual = 0.0398663298028, Final residual = 0.00216917053868, No Iterations 3
time step continuity errors : sum local = 4.14986932982e-06, global = 3.88401090498e-07, cumulative = -0.00011732121464
smoothSolver:  Solving for epsilon, Initial residual = 0.000860033231887, Final residual = 6.34825865675e-05, No Iterations 3
smoothSolver:  Solving for k, Initial residual = 0.00629451343868, Final residual = 0.000477521420073, No Iterations 3
ExecutionTime = 28.61 s  ClockTime = 29 s

Time = 50

smoothSolver:  Solving for Ux, Initial residual = 0.00144396863151, Final residual = 0.000121288369377, No Iterations 3
smoothSolver:  Solving for Uy, Initial residual = 0.00578829844603, Final residual = 0.000541021651805, No Iterations 3
smoothSolver:  Solving for Uz, Initial residual = 0.00473359906796, Final residual = 0.000289915562758, No Iterations 3
GAMG:  Solving for p, Initial residual = 0.0387716645037, Final residual = 0.00227710953579, No Iterations 3
time step continuity errors : sum local = 4.2972139893e-06, global = 1.48692094787e-07, cumulative = -0.000117172522545
smoothSolver:  Solving for epsilon, Initial residual = 0.000845701491635, Final residual = 6.09162298629e-05, No Iterations 3
smoothSolver:  Solving for k, Initial residual = 0.00632252561971, Final residual = 0.000482104605131, No Iterations 3
ExecutionTime = 29.21 s  ClockTime = 30 s

Time = 51

smoothSolver:  Solving for Ux, Initial residual = 0.00140931320197, Final residual = 0.000118277585724, No Iterations 3
smoothSolver:  Solving for Uy, Initial residual = 0.00563109061256, Final residual = 0.000526840450882, No Iterations 3
smoothSolver:  Solving for Uz, Initial residual = 0.00519464930414, Final residual = 0.000306732081325, No Iterations 3
GAMG:  Solving for p, Initial residual = 0.0372976412896, Final residual = 0.00211901486601, No Iterations 3
time step continuity errors : sum local = 4.03127827e-06, global = -2.78014805726e-07, cumulative = -0.000117450537351
smoothSolver:  Solving for epsilon, Initial residual = 0.000832035923203, Final residual = 5.85251834181e-05, No Iterations 3
smoothSolver:  Solving for k, Initial residual = 0.00634485274987, Final residual = 0.000486139832467, No Iterations 3
ExecutionTime = 29.77 s  ClockTime = 30 s

Time = 52

smoothSolver:  Solving for Ux, Initial residual = 0.00136558696478, Final residual = 0.000114589181515, No Iterations 3
smoothSolver:  Solving for Uy, Initial residual = 0.00542572923307, Final residual = 0.000508318332241, No Iterations 3
smoothSolver:  Solving for Uz, Initial residual = 0.00551451008729, Final residual = 0.000321530630465, No Iterations 3
GAMG:  Solving for p, Initial residual = 0.0356854741315, Final residual = 0.00200602596964, No Iterations 3
time step continuity errors : sum local = 3.85144403064e-06, global = -7.14229101613e-08, cumulative = -0.000117521960261
smoothSolver:  Solving for epsilon, Initial residual = 0.000818706812928, Final residual = 5.62924975726e-05, No Iterations 3
smoothSolver:  Solving for k, Initial residual = 0.00636018919147, Final residual = 0.000489545882989, No Iterations 3
ExecutionTime = 30.34 s  ClockTime = 31 s

Time = 53

smoothSolver:  Solving for Ux, Initial residual = 0.00133028909714, Final residual = 0.000111221838248, No Iterations 3
smoothSolver:  Solving for Uy, Initial residual = 0.00528562549694, Final residual = 0.000494371642738, No Iterations 3
smoothSolver:  Solving for Uz, Initial residual = 0.00540095785582, Final residual = 0.000315008140666, No Iterations 3
GAMG:  Solving for p, Initial residual = 0.0342568745179, Final residual = 0.00335921879298, No Iterations 2
time step continuity errors : sum local = 6.45561490954e-06, global = 3.82351003971e-07, cumulative = -0.000117139609257
smoothSolver:  Solving for epsilon, Initial residual = 0.000805326425663, Final residual = 5.41953793001e-05, No Iterations 3
smoothSolver:  Solving for k, Initial residual = 0.00636837656773, Final residual = 0.000492368846438, No Iterations 3
ExecutionTime = 30.88 s  ClockTime = 31 s

Time = 54

smoothSolver:  Solving for Ux, Initial residual = 0.00131509033878, Final residual = 0.000108941187543, No Iterations 3
smoothSolver:  Solving for Uy, Initial residual = 0.00518177805382, Final residual = 0.000484695584686, No Iterations 3
smoothSolver:  Solving for Uz, Initial residual = 0.00498918440787, Final residual = 0.000294155488672, No Iterations 3
GAMG:  Solving for p, Initial residual = 0.0338980636619, Final residual = 0.00182567647485, No Iterations 3
time step continuity errors : sum local = 3.4709710762e-06, global = 1.46970236349e-07, cumulative = -0.000116992639021
smoothSolver:  Solving for epsilon, Initial residual = 0.000792406461059, Final residual = 5.22826136979e-05, No Iterations 3
smoothSolver:  Solving for k, Initial residual = 0.00636994018048, Final residual = 0.000494695381569, No Iterations 3
ExecutionTime = 31.46 s  ClockTime = 32 s

Time = 55

smoothSolver:  Solving for Ux, Initial residual = 0.00132453364163, Final residual = 0.000107918288213, No Iterations 3
smoothSolver:  Solving for Uy, Initial residual = 0.0051113678781, Final residual = 0.000477016858346, No Iterations 3
smoothSolver:  Solving for Uz, Initial residual = 0.00457523842246, Final residual = 0.000271540910347, No Iterations 3
GAMG:  Solving for p, Initial residual = 0.0330775442908, Final residual = 0.00174858358542, No Iterations 3
time step continuity errors : sum local = 3.24891129673e-06, global = 1.86634451347e-07, cumulative = -0.000116806004569
smoothSolver:  Solving for epsilon, Initial residual = 0.000779981638841, Final residual = 5.05864988724e-05, No Iterations 3
smoothSolver:  Solving for k, Initial residual = 0.00636723940451, Final residual = 0.000496586682689, No Iterations 3
ExecutionTime = 32.04 s  ClockTime = 32 s

Time = 56

smoothSolver:  Solving for Ux, Initial residual = 0.00132320798047, Final residual = 0.000106637980396, No Iterations 3
smoothSolver:  Solving for Uy, Initial residual = 0.00503369754389, Final residual = 0.000468139039571, No Iterations 3
smoothSolver:  Solving for Uz, Initial residual = 0.00444255579767, Final residual = 0.000260596171732, No Iterations 3
GAMG:  Solving for p, Initial residual = 0.0325306104687, Final residual = 0.00311571814216, No Iterations 2
time step continuity errors : sum local = 5.69888226846e-06, global = 3.09720698296e-07, cumulative = -0.000116496283871
smoothSolver:  Solving for epsilon, Initial residual = 0.000768405332796, Final residual = 4.91542067927e-05, No Iterations 3
smoothSolver:  Solving for k, Initial residual = 0.00635866178512, Final residual = 0.000498002525595, No Iterations 3
ExecutionTime = 32.62 s  ClockTime = 33 s

Time = 57

smoothSolver:  Solving for Ux, Initial residual = 0.00129738796491, Final residual = 0.000104362873741, No Iterations 3
smoothSolver:  Solving for Uy, Initial residual = 0.0049084652285, Final residual = 0.000455835302144, No Iterations 3
smoothSolver:  Solving for Uz, Initial residual = 0.00450224212026, Final residual = 0.000260146659599, No Iterations 3
GAMG:  Solving for p, Initial residual = 0.03226777622, Final residual = 0.00198627161072, No Iterations 3
time step continuity errors : sum local = 3.62899691974e-06, global = 1.02631831892e-07, cumulative = -0.000116393652039
smoothSolver:  Solving for epsilon, Initial residual = 0.000758162106411, Final residual = 4.80727192645e-05, No Iterations 3
smoothSolver:  Solving for k, Initial residual = 0.00634285698147, Final residual = 0.000498906616728, No Iterations 3
ExecutionTime = 33.2 s  ClockTime = 34 s

Time = 58

smoothSolver:  Solving for Ux, Initial residual = 0.0012704705389, Final residual = 0.000101919277958, No Iterations 3
smoothSolver:  Solving for Uy, Initial residual = 0.00478803469518, Final residual = 0.000443240335617, No Iterations 3
smoothSolver:  Solving for Uz, Initial residual = 0.00477746901962, Final residual = 0.000272065107659, No Iterations 3
GAMG:  Solving for p, Initial residual = 0.0313244056284, Final residual = 0.00185806515294, No Iterations 3
time step continuity errors : sum local = 3.38634544728e-06, global = 3.28399313398e-08, cumulative = -0.000116360812108
smoothSolver:  Solving for epsilon, Initial residual = 0.000747644413821, Final residual = 4.72406648292e-05, No Iterations 3
smoothSolver:  Solving for k, Initial residual = 0.00632130038532, Final residual = 0.000499382167478, No Iterations 3
ExecutionTime = 33.84 s  ClockTime = 34 s

Time = 59

smoothSolver:  Solving for Ux, Initial residual = 0.00124660130247, Final residual = 9.95658208502e-05, No Iterations 3
smoothSolver:  Solving for Uy, Initial residual = 0.00466631514986, Final residual = 0.000431020493961, No Iterations 3
smoothSolver:  Solving for Uz, Initial residual = 0.00488121608664, Final residual = 0.000276783593709, No Iterations 3
GAMG:  Solving for p, Initial residual = 0.0305026022321, Final residual = 0.00301687936778, No Iterations 2
time step continuity errors : sum local = 5.47284117174e-06, global = 3.4169418488e-07, cumulative = -0.000116019117923
smoothSolver:  Solving for epsilon, Initial residual = 0.000737152305021, Final residual = 4.66254135124e-05, No Iterations 3
smoothSolver:  Solving for k, Initial residual = 0.00629511418544, Final residual = 0.000499477009578, No Iterations 3
ExecutionTime = 34.37 s  ClockTime = 35 s

Time = 60

smoothSolver:  Solving for Ux, Initial residual = 0.0012247454078, Final residual = 9.7403904732e-05, No Iterations 3
smoothSolver:  Solving for Uy, Initial residual = 0.00455555455428, Final residual = 0.000420543105003, No Iterations 3
smoothSolver:  Solving for Uz, Initial residual = 0.00470284732841, Final residual = 0.000267234053695, No Iterations 3
GAMG:  Solving for p, Initial residual = 0.0301906376616, Final residual = 0.00164431486472, No Iterations 3
time step continuity errors : sum local = 2.96849954396e-06, global = 1.11484377066e-07, cumulative = -0.000115907633546
smoothSolver:  Solving for epsilon, Initial residual = 0.000727415227403, Final residual = 4.6249418351e-05, No Iterations 3
smoothSolver:  Solving for k, Initial residual = 0.00626423488563, Final residual = 0.000499260953723, No Iterations 3
ExecutionTime = 34.96 s  ClockTime = 35 s

Time = 61

smoothSolver:  Solving for Ux, Initial residual = 0.0012171051221, Final residual = 9.59266273839e-05, No Iterations 3
smoothSolver:  Solving for Uy, Initial residual = 0.00448664451689, Final residual = 0.000412698185337, No Iterations 3
smoothSolver:  Solving for Uz, Initial residual = 0.00448132353807, Final residual = 0.000254732431441, No Iterations 3
GAMG:  Solving for p, Initial residual = 0.0292896089992, Final residual = 0.00155258804373, No Iterations 3
time step continuity errors : sum local = 2.77046488916e-06, global = 1.17274417107e-07, cumulative = -0.000115790359129
smoothSolver:  Solving for epsilon, Initial residual = 0.000717580783062, Final residual = 4.60260233826e-05, No Iterations 3
smoothSolver:  Solving for k, Initial residual = 0.00623078485148, Final residual = 0.000498758537703, No Iterations 3
ExecutionTime = 35.53 s  ClockTime = 36 s

Time = 62

smoothSolver:  Solving for Ux, Initial residual = 0.00120616872121, Final residual = 9.44352065162e-05, No Iterations 3
smoothSolver:  Solving for Uy, Initial residual = 0.00442220683529, Final residual = 0.000404898635378, No Iterations 3
smoothSolver:  Solving for Uz, Initial residual = 0.00433149315788, Final residual = 0.000245407512464, No Iterations 3
GAMG:  Solving for p, Initial residual = 0.0285309823274, Final residual = 0.00265712658955, No Iterations 2
time step continuity errors : sum local = 4.70177434087e-06, global = 3.09969030787e-07, cumulative = -0.000115480390098
smoothSolver:  Solving for epsilon, Initial residual = 0.000707416030998, Final residual = 4.58812968306e-05, No Iterations 3
smoothSolver:  Solving for k, Initial residual = 0.0061941991632, Final residual = 0.000497932677852, No Iterations 3
ExecutionTime = 36.1 s  ClockTime = 36 s

Time = 63

smoothSolver:  Solving for Ux, Initial residual = 0.00118281811778, Final residual = 9.24830897314e-05, No Iterations 3
smoothSolver:  Solving for Uy, Initial residual = 0.004331218983, Final residual = 0.000395259393393, No Iterations 3
smoothSolver:  Solving for Uz, Initial residual = 0.00427378549992, Final residual = 0.000240556683452, No Iterations 3
GAMG:  Solving for p, Initial residual = 0.0282003703892, Final residual = 0.00165250194433, No Iterations 3
time step continuity errors : sum local = 2.91750233431e-06, global = 4.90513968674e-08, cumulative = -0.000115431338701
smoothSolver:  Solving for epsilon, Initial residual = 0.000697516029529, Final residual = 4.57808834113e-05, No Iterations 3
smoothSolver:  Solving for k, Initial residual = 0.00615445794799, Final residual = 0.000496776235382, No Iterations 3
ExecutionTime = 36.67 s  ClockTime = 37 s

Time = 64

smoothSolver:  Solving for Ux, Initial residual = 0.0011643803417, Final residual = 9.07072010637e-05, No Iterations 3
smoothSolver:  Solving for Uy, Initial residual = 0.00425510149481, Final residual = 0.00038620651926, No Iterations 3
smoothSolver:  Solving for Uz, Initial residual = 0.00438425575776, Final residual = 0.000244297602566, No Iterations 3
GAMG:  Solving for p, Initial residual = 0.027540750075, Final residual = 0.00161953088352, No Iterations 3
time step continuity errors : sum local = 2.84621490974e-06, global = 4.12566333933e-08, cumulative = -0.000115390082068
smoothSolver:  Solving for epsilon, Initial residual = 0.000686439959863, Final residual = 4.55887782706e-05, No Iterations 3
smoothSolver:  Solving for k, Initial residual = 0.00611268598201, Final residual = 0.000495323044777, No Iterations 3
ExecutionTime = 37.24 s  ClockTime = 38 s

Time = 65

smoothSolver:  Solving for Ux, Initial residual = 0.00114468523291, Final residual = 8.8852040739e-05, No Iterations 3
smoothSolver:  Solving for Uy, Initial residual = 0.00416914867612, Final residual = 0.000376969812022, No Iterations 3
smoothSolver:  Solving for Uz, Initial residual = 0.00447067774452, Final residual = 0.000247695185067, No Iterations 3
GAMG:  Solving for p, Initial residual = 0.0268159412005, Final residual = 0.00266531586814, No Iterations 2
time step continuity errors : sum local = 4.6771224744e-06, global = 2.72080868268e-07, cumulative = -0.0001151180012
smoothSolver:  Solving for epsilon, Initial residual = 0.000674059012294, Final residual = 4.52789562059e-05, No Iterations 3
smoothSolver:  Solving for k, Initial residual = 0.00606887286926, Final residual = 0.000493572608395, No Iterations 3
ExecutionTime = 37.8 s  ClockTime = 38 s

Time = 66

smoothSolver:  Solving for Ux, Initial residual = 0.00112117958638, Final residual = 8.68622276817e-05, No Iterations 3
smoothSolver:  Solving for Uy, Initial residual = 0.00407089881975, Final residual = 0.00036738568963, No Iterations 3
smoothSolver:  Solving for Uz, Initial residual = 0.00440177079918, Final residual = 0.000243489637121, No Iterations 3
GAMG:  Solving for p, Initial residual = 0.0264033201253, Final residual = 0.0015314518383, No Iterations 3
time step continuity errors : sum local = 2.69516851505e-06, global = 8.86241852908e-08, cumulative = -0.000115029377014
smoothSolver:  Solving for epsilon, Initial residual = 0.000661190607784, Final residual = 4.48876719822e-05, No Iterations 3
smoothSolver:  Solving for k, Initial residual = 0.00602353367026, Final residual = 0.000491566644929, No Iterations 3
ExecutionTime = 38.37 s  ClockTime = 39 s

Time = 67

smoothSolver:  Solving for Ux, Initial residual = 0.00110772636448, Final residual = 8.53213789259e-05, No Iterations 3
smoothSolver:  Solving for Uy, Initial residual = 0.00400094549754, Final residual = 0.000359531296139, No Iterations 3
smoothSolver:  Solving for Uz, Initial residual = 0.00433945880427, Final residual = 0.000239376916778, No Iterations 3
GAMG:  Solving for p, Initial residual = 0.0252877675257, Final residual = 0.00142890212674, No Iterations 3
time step continuity errors : sum local = 2.53753168063e-06, global = 8.19482139747e-08, cumulative = -0.0001149474288
smoothSolver:  Solving for epsilon, Initial residual = 0.000647134038437, Final residual = 4.43712829792e-05, No Iterations 3
smoothSolver:  Solving for k, Initial residual = 0.00597842864584, Final residual = 0.000489333906173, No Iterations 3
ExecutionTime = 38.93 s  ClockTime = 39 s

Time = 68

smoothSolver:  Solving for Ux, Initial residual = 0.00109323891358, Final residual = 8.38009838045e-05, No Iterations 3
smoothSolver:  Solving for Uy, Initial residual = 0.00393845711974, Final residual = 0.000352346612541, No Iterations 3
smoothSolver:  Solving for Uz, Initial residual = 0.00425994131037, Final residual = 0.000234506059924, No Iterations 3
GAMG:  Solving for p, Initial residual = 0.0242151215743, Final residual = 0.00233786685156, No Iterations 2
time step continuity errors : sum local = 4.19041687296e-06, global = 2.29940356119e-07, cumulative = -0.000114717488444
smoothSolver:  Solving for epsilon, Initial residual = 0.000631976256558, Final residual = 4.37424285641e-05, No Iterations 3
smoothSolver:  Solving for k, Initial residual = 0.00593314080648, Final residual = 0.000486865542411, No Iterations 3
ExecutionTime = 39.49 s  ClockTime = 40 s

Time = 69

smoothSolver:  Solving for Ux, Initial residual = 0.00107132078671, Final residual = 8.20257049281e-05, No Iterations 3
smoothSolver:  Solving for Uy, Initial residual = 0.00386474955702, Final residual = 0.000344626582478, No Iterations 3
smoothSolver:  Solving for Uz, Initial residual = 0.00416805211516, Final residual = 0.000229017286541, No Iterations 3
GAMG:  Solving for p, Initial residual = 0.0236184348155, Final residual = 0.00137915397944, No Iterations 3
time step continuity errors : sum local = 2.48638945272e-06, global = 6.49350947932e-08, cumulative = -0.000114652553349
smoothSolver:  Solving for epsilon, Initial residual = 0.000616638084385, Final residual = 4.3043056794e-05, No Iterations 3
smoothSolver:  Solving for k, Initial residual = 0.00588812825526, Final residual = 0.000484199569259, No Iterations 3
ExecutionTime = 40.06 s  ClockTime = 40 s

Time = 70

smoothSolver:  Solving for Ux, Initial residual = 0.00105445035145, Final residual = 8.04722779375e-05, No Iterations 3
smoothSolver:  Solving for Uy, Initial residual = 0.00380821640793, Final residual = 0.000337962565228, No Iterations 3
smoothSolver:  Solving for Uz, Initial residual = 0.00417028953379, Final residual = 0.000228336656648, No Iterations 3
GAMG:  Solving for p, Initial residual = 0.0227147941904, Final residual = 0.00132440835861, No Iterations 3
time step continuity errors : sum local = 2.4093592735e-06, global = 5.30273963325e-08, cumulative = -0.000114599525953
smoothSolver:  Solving for epsilon, Initial residual = 0.000600421410317, Final residual = 4.22417664129e-05, No Iterations 3
smoothSolver:  Solving for k, Initial residual = 0.00584422752166, Final residual = 0.000481369545244, No Iterations 3
ExecutionTime = 40.63 s  ClockTime = 41 s

Time = 71

smoothSolver:  Solving for Ux, Initial residual = 0.00103641201231, Final residual = 7.88689748836e-05, No Iterations 3
smoothSolver:  Solving for Uy, Initial residual = 0.00374565088628, Final residual = 0.000331226818016, No Iterations 3
smoothSolver:  Solving for Uz, Initial residual = 0.00418777593981, Final residual = 0.000228626981, No Iterations 3
GAMG:  Solving for p, Initial residual = 0.02185527736, Final residual = 0.00216520967406, No Iterations 2
time step continuity errors : sum local = 3.97400060209e-06, global = 2.09326192477e-07, cumulative = -0.000114390199761
smoothSolver:  Solving for epsilon, Initial residual = 0.000583550816725, Final residual = 4.13560608385e-05, No Iterations 3
smoothSolver:  Solving for k, Initial residual = 0.00580085525484, Final residual = 0.000478405945617, No Iterations 3
ExecutionTime = 41.18 s  ClockTime = 42 s

Time = 72

smoothSolver:  Solving for Ux, Initial residual = 0.00101418147515, Final residual = 7.71046527271e-05, No Iterations 3
smoothSolver:  Solving for Uy, Initial residual = 0.00366851705933, Final residual = 0.000323895412471, No Iterations 3
smoothSolver:  Solving for Uz, Initial residual = 0.00413687347555, Final residual = 0.000225490776999, No Iterations 3
GAMG:  Solving for p, Initial residual = 0.0214020644107, Final residual = 0.00127126941696, No Iterations 3
time step continuity errors : sum local = 2.34777496683e-06, global = 8.1194348905e-08, cumulative = -0.000114309005412
smoothSolver:  Solving for epsilon, Initial residual = 0.000566768616664, Final residual = 4.04256992795e-05, No Iterations 3
smoothSolver:  Solving for k, Initial residual = 0.00575796638816, Final residual = 0.000475355158126, No Iterations 3
ExecutionTime = 41.75 s  ClockTime = 42 s

Time = 73

smoothSolver:  Solving for Ux, Initial residual = 0.000999096959406, Final residual = 7.56585274251e-05, No Iterations 3
smoothSolver:  Solving for Uy, Initial residual = 0.00360603592077, Final residual = 0.000317582458066, No Iterations 3
smoothSolver:  Solving for Uz, Initial residual = 0.00413308077844, Final residual = 0.000224786363361, No Iterations 3
GAMG:  Solving for p, Initial residual = 0.0205074722579, Final residual = 0.00118841358845, No Iterations 3
time step continuity errors : sum local = 2.21678849736e-06, global = 7.24267910254e-08, cumulative = -0.000114236578621
smoothSolver:  Solving for epsilon, Initial residual = 0.000549518326852, Final residual = 3.94279105848e-05, No Iterations 3
smoothSolver:  Solving for k, Initial residual = 0.00571656770722, Final residual = 0.000472235361615, No Iterations 3
ExecutionTime = 42.34 s  ClockTime = 43 s

Time = 74

smoothSolver:  Solving for Ux, Initial residual = 0.000983435194398, Final residual = 7.422675412e-05, No Iterations 3
smoothSolver:  Solving for Uy, Initial residual = 0.00354766767849, Final residual = 0.000311689243439, No Iterations 3
smoothSolver:  Solving for Uz, Initial residual = 0.00410102135195, Final residual = 0.000222773331846, No Iterations 3
GAMG:  Solving for p, Initial residual = 0.0196127269744, Final residual = 0.00193888854575, No Iterations 2
time step continuity errors : sum local = 3.65003435016e-06, global = 1.74345148846e-07, cumulative = -0.000114062233472
smoothSolver:  Solving for epsilon, Initial residual = 0.000531935857442, Final residual = 3.83768903333e-05, No Iterations 3
smoothSolver:  Solving for k, Initial residual = 0.00567528448127, Final residual = 0.000469022182946, No Iterations 3
ExecutionTime = 42.89 s  ClockTime = 43 s

Time = 75

smoothSolver:  Solving for Ux, Initial residual = 0.000962725413151, Final residual = 7.26243371722e-05, No Iterations 3
smoothSolver:  Solving for Uy, Initial residual = 0.00348472003529, Final residual = 0.00030550683113, No Iterations 3
smoothSolver:  Solving for Uz, Initial residual = 0.0040133689558, Final residual = 0.000217979147885, No Iterations 3
GAMG:  Solving for p, Initial residual = 0.0190842243546, Final residual = 0.00112722704819, No Iterations 3
time step continuity errors : sum local = 2.13493102335e-06, global = 5.81621637613e-08, cumulative = -0.000114004071308
smoothSolver:  Solving for epsilon, Initial residual = 0.000514645344756, Final residual = 3.73062343299e-05, No Iterations 3
smoothSolver:  Solving for k, Initial residual = 0.00563352840666, Final residual = 0.000465757643871, No Iterations 3
ExecutionTime = 43.47 s  ClockTime = 44 s

Time = 76

smoothSolver:  Solving for Ux, Initial residual = 0.000946473855321, Final residual = 7.12312862947e-05, No Iterations 3
smoothSolver:  Solving for Uy, Initial residual = 0.00343229672651, Final residual = 0.000299942792992, No Iterations 3
smoothSolver:  Solving for Uz, Initial residual = 0.00398065686458, Final residual = 0.000215995666076, No Iterations 3
GAMG:  Solving for p, Initial residual = 0.0182702576528, Final residual = 0.00106983545281, No Iterations 3
time step continuity errors : sum local = 2.04299378821e-06, global = 4.34846425231e-08, cumulative = -0.000113960586665
smoothSolver:  Solving for epsilon, Initial residual = 0.000497133114009, Final residual = 3.61918415908e-05, No Iterations 3
smoothSolver:  Solving for k, Initial residual = 0.00559183243206, Final residual = 0.000462387828177, No Iterations 3
ExecutionTime = 44.03 s  ClockTime = 44 s

Time = 77

smoothSolver:  Solving for Ux, Initial residual = 0.000929275746983, Final residual = 6.98137350651e-05, No Iterations 3
smoothSolver:  Solving for Uy, Initial residual = 0.00337827819261, Final residual = 0.000294297908463, No Iterations 3
smoothSolver:  Solving for Uz, Initial residual = 0.00395468331943, Final residual = 0.00021442807881, No Iterations 3
GAMG:  Solving for p, Initial residual = 0.0174999289273, Final residual = 0.00174481089334, No Iterations 2
time step continuity errors : sum local = 3.35726560642e-06, global = 1.73580710003e-07, cumulative = -0.000113787005955
smoothSolver:  Solving for epsilon, Initial residual = 0.000479502940869, Final residual = 3.50459255386e-05, No Iterations 3
smoothSolver:  Solving for k, Initial residual = 0.00554944550597, Final residual = 0.000458888084382, No Iterations 3
ExecutionTime = 44.59 s  ClockTime = 45 s

Time = 78

smoothSolver:  Solving for Ux, Initial residual = 0.000908211754275, Final residual = 6.82483415756e-05, No Iterations 3
smoothSolver:  Solving for Uy, Initial residual = 0.00331687681025, Final residual = 0.000288242917072, No Iterations 3
smoothSolver:  Solving for Uz, Initial residual = 0.00388800376029, Final residual = 0.000210773030559, No Iterations 3
GAMG:  Solving for p, Initial residual = 0.0170537013787, Final residual = 0.0010310862893, No Iterations 3
time step continuity errors : sum local = 1.99452151437e-06, global = 5.55670976562e-08, cumulative = -0.000113731438858
smoothSolver:  Solving for epsilon, Initial residual = 0.000462331354454, Final residual = 3.38973656787e-05, No Iterations 3
smoothSolver:  Solving for k, Initial residual = 0.00550635884239, Final residual = 0.000455287579506, No Iterations 3
ExecutionTime = 45.17 s  ClockTime = 45 s

Time = 79

smoothSolver:  Solving for Ux, Initial residual = 0.000892955008606, Final residual = 6.69429654755e-05, No Iterations 3
smoothSolver:  Solving for Uy, Initial residual = 0.00326388015931, Final residual = 0.000282555087093, No Iterations 3
smoothSolver:  Solving for Uz, Initial residual = 0.00387779236193, Final residual = 0.000210036571149, No Iterations 3
GAMG:  Solving for p, Initial residual = 0.0163344344648, Final residual = 0.000970327834013, No Iterations 3
time step continuity errors : sum local = 1.89234337715e-06, global = 4.78582497662e-08, cumulative = -0.000113683580608
smoothSolver:  Solving for epsilon, Initial residual = 0.000445134655384, Final residual = 3.27255210756e-05, No Iterations 3
smoothSolver:  Solving for k, Initial residual = 0.00546335670723, Final residual = 0.000451568221701, No Iterations 3
ExecutionTime = 45.73 s  ClockTime = 46 s

Time = 80

smoothSolver:  Solving for Ux, Initial residual = 0.000877170063026, Final residual = 6.56346144301e-05, No Iterations 3
smoothSolver:  Solving for Uy, Initial residual = 0.00321326468636, Final residual = 0.000277070960192, No Iterations 3
smoothSolver:  Solving for Uz, Initial residual = 0.00385183637879, Final residual = 0.000208578903422, No Iterations 3
GAMG:  Solving for p, Initial residual = 0.0156199718128, Final residual = 0.000898826099448, No Iterations 3
time step continuity errors : sum local = 1.76616430716e-06, global = 2.93842807263e-08, cumulative = -0.000113654196327
smoothSolver:  Solving for epsilon, Initial residual = 0.000428192537782, Final residual = 3.15498516438e-05, No Iterations 3
smoothSolver:  Solving for k, Initial residual = 0.00541974656652, Final residual = 0.000447757090994, No Iterations 3
ExecutionTime = 46.3 s  ClockTime = 47 s

Time = 81

smoothSolver:  Solving for Ux, Initial residual = 0.000859777478392, Final residual = 6.42768491313e-05, No Iterations 3
smoothSolver:  Solving for Uy, Initial residual = 0.00316266018422, Final residual = 0.000271695634976, No Iterations 3
smoothSolver:  Solving for Uz, Initial residual = 0.0037989239357, Final residual = 0.000205764243467, No Iterations 3
GAMG:  Solving for p, Initial residual = 0.0149765101459, Final residual = 0.00146832662018, No Iterations 2
time step continuity errors : sum local = 2.90362335685e-06, global = 1.63830616689e-07, cumulative = -0.000113490365711
smoothSolver:  Solving for epsilon, Initial residual = 0.000411349047868, Final residual = 3.03658324586e-05, No Iterations 3
smoothSolver:  Solving for k, Initial residual = 0.00537512008793, Final residual = 0.000443786792346, No Iterations 3
ExecutionTime = 46.85 s  ClockTime = 47 s

Time = 82

smoothSolver:  Solving for Ux, Initial residual = 0.000838877444706, Final residual = 6.27831999967e-05, No Iterations 3
smoothSolver:  Solving for Uy, Initial residual = 0.00310961944219, Final residual = 0.000266399566871, No Iterations 3
smoothSolver:  Solving for Uz, Initial residual = 0.00370511811156, Final residual = 0.000200827432837, No Iterations 3
GAMG:  Solving for p, Initial residual = 0.0145876179529, Final residual = 0.0008797533561, No Iterations 3
time step continuity errors : sum local = 1.74699075053e-06, global = 3.54967237509e-08, cumulative = -0.000113454868987
smoothSolver:  Solving for epsilon, Initial residual = 0.000395035939942, Final residual = 2.91951430057e-05, No Iterations 3
smoothSolver:  Solving for k, Initial residual = 0.00533012112816, Final residual = 0.000439700844531, No Iterations 3
ExecutionTime = 47.42 s  ClockTime = 48 s

Time = 83

smoothSolver:  Solving for Ux, Initial residual = 0.000823973377021, Final residual = 6.15614996985e-05, No Iterations 3
smoothSolver:  Solving for Uy, Initial residual = 0.00306212546057, Final residual = 0.000261365783015, No Iterations 3
smoothSolver:  Solving for Uz, Initial residual = 0.00366820745891, Final residual = 0.00019876344917, No Iterations 3
GAMG:  Solving for p, Initial residual = 0.0139969282755, Final residual = 0.000843435873518, No Iterations 3
time step continuity errors : sum local = 1.68654852738e-06, global = 2.96068610346e-08, cumulative = -0.000113425262126
smoothSolver:  Solving for epsilon, Initial residual = 0.000378914221816, Final residual = 2.80264304951e-05, No Iterations 3
smoothSolver:  Solving for k, Initial residual = 0.00528580273956, Final residual = 0.000435494566458, No Iterations 3
ExecutionTime = 47.99 s  ClockTime = 48 s

Time = 84

smoothSolver:  Solving for Ux, Initial residual = 0.000808903940445, Final residual = 6.03413333144e-05, No Iterations 3
smoothSolver:  Solving for Uy, Initial residual = 0.00301554250953, Final residual = 0.000256552276678, No Iterations 3
smoothSolver:  Solving for Uz, Initial residual = 0.00363934045277, Final residual = 0.000197086532722, No Iterations 3
GAMG:  Solving for p, Initial residual = 0.0133776831126, Final residual = 0.000789107014901, No Iterations 3
time step continuity errors : sum local = 1.58847450284e-06, global = 1.76172682104e-08, cumulative = -0.000113407644858
smoothSolver:  Solving for epsilon, Initial residual = 0.000363232832086, Final residual = 2.68712547229e-05, No Iterations 3
smoothSolver:  Solving for k, Initial residual = 0.00524145315982, Final residual = 0.000431179322332, No Iterations 3
ExecutionTime = 48.57 s  ClockTime = 49 s

Time = 85

smoothSolver:  Solving for Ux, Initial residual = 0.000792287987756, Final residual = 5.90615700647e-05, No Iterations 3
smoothSolver:  Solving for Uy, Initial residual = 0.00296599460352, Final residual = 0.000251675384617, No Iterations 3
smoothSolver:  Solving for Uz, Initial residual = 0.00359873260248, Final residual = 0.000194801848491, No Iterations 3
GAMG:  Solving for p, Initial residual = 0.0128197113313, Final residual = 0.000739940296095, No Iterations 3
time step continuity errors : sum local = 1.49806810329e-06, global = 8.21483142943e-09, cumulative = -0.000113399430026
smoothSolver:  Solving for epsilon, Initial residual = 0.000347953665945, Final residual = 2.57329106232e-05, No Iterations 3
smoothSolver:  Solving for k, Initial residual = 0.00519648125794, Final residual = 0.000426764284133, No Iterations 3
ExecutionTime = 49.14 s  ClockTime = 49 s

Time = 86

smoothSolver:  Solving for Ux, Initial residual = 0.000774705537755, Final residual = 5.77456492806e-05, No Iterations 3
smoothSolver:  Solving for Uy, Initial residual = 0.00291534423704, Final residual = 0.000246758384553, No Iterations 3
smoothSolver:  Solving for Uz, Initial residual = 0.00354071329814, Final residual = 0.000191624864214, No Iterations 3
GAMG:  Solving for p, Initial residual = 0.0123291593626, Final residual = 0.00122658905939, No Iterations 2
time step continuity errors : sum local = 2.49565751693e-06, global = 1.51782080088e-07, cumulative = -0.000113247647946
smoothSolver:  Solving for epsilon, Initial residual = 0.000332962871029, Final residual = 2.46097866627e-05, No Iterations 3
smoothSolver:  Solving for k, Initial residual = 0.00515094316893, Final residual = 0.000422221549088, No Iterations 3
ExecutionTime = 49.71 s  ClockTime = 50 s

Time = 87

smoothSolver:  Solving for Ux, Initial residual = 0.000755233920435, Final residual = 5.63577963029e-05, No Iterations 3
smoothSolver:  Solving for Uy, Initial residual = 0.00286677660989, Final residual = 0.00024207035802, No Iterations 3
smoothSolver:  Solving for Uz, Initial residual = 0.00344884319609, Final residual = 0.000186679123285, No Iterations 3
GAMG:  Solving for p, Initial residual = 0.0120782091218, Final residual = 0.000749430496776, No Iterations 3
time step continuity errors : sum local = 1.53031480726e-06, global = 2.04462741852e-08, cumulative = -0.000113227201672
smoothSolver:  Solving for epsilon, Initial residual = 0.000318595913422, Final residual = 2.35147110232e-05, No Iterations 3
smoothSolver:  Solving for k, Initial residual = 0.00510503207998, Final residual = 0.000417632665037, No Iterations 3
ExecutionTime = 50.28 s  ClockTime = 51 s

Time = 88

smoothSolver:  Solving for Ux, Initial residual = 0.000741668668769, Final residual = 5.52437527293e-05, No Iterations 3
smoothSolver:  Solving for Uy, Initial residual = 0.00282226629662, Final residual = 0.000237480960367, No Iterations 3
smoothSolver:  Solving for Uz, Initial residual = 0.00341330900003, Final residual = 0.000184514117267, No Iterations 3
GAMG:  Solving for p, Initial residual = 0.0116403127327, Final residual = 0.000722446113496, No Iterations 3
time step continuity errors : sum local = 1.48449947104e-06, global = 1.31765763046e-08, cumulative = -0.000113214025096
smoothSolver:  Solving for epsilon, Initial residual = 0.000304658123465, Final residual = 2.2441061102e-05, No Iterations 3
smoothSolver:  Solving for k, Initial residual = 0.00505938401581, Final residual = 0.000413023061159, No Iterations 3
ExecutionTime = 50.85 s  ClockTime = 51 s

Time = 89

smoothSolver:  Solving for Ux, Initial residual = 0.000727781489506, Final residual = 5.41258786627e-05, No Iterations 3
smoothSolver:  Solving for Uy, Initial residual = 0.00277895021337, Final residual = 0.000233009528867, No Iterations 3
smoothSolver:  Solving for Uz, Initial residual = 0.00337894882095, Final residual = 0.000182424029003, No Iterations 3
GAMG:  Solving for p, Initial residual = 0.0111769312412, Final residual = 0.000676562628003, No Iterations 3
[...]
smoothSolver:  Solving for k, Initial residual = 0.000344086928919, Final residual = 2.04567144069e-05, No Iterations 3
ExecutionTime = 106.17 s  ClockTime = 107 s

Time = 184

smoothSolver:  Solving for Ux, Initial residual = 2.99159655897e-05, Final residual = 2.0465301917e-06, No Iterations 3
smoothSolver:  Solving for Uy, Initial residual = 0.000189506306889, Final residual = 1.4838010925e-05, No Iterations 3
smoothSolver:  Solving for Uz, Initial residual = 0.000208827248483, Final residual = 9.87775370313e-06, No Iterations 3
GAMG:  Solving for p, Initial residual = 0.000328777269062, Final residual = 2.97280964019e-05, No Iterations 3
time step continuity errors : sum local = 7.43707005143e-08, global = -5.40944489018e-09, cumulative = -0.000114191241336
smoothSolver:  Solving for epsilon, Initial residual = 6.43978323838e-06, Final residual = 2.90701573542e-07, No Iterations 3
smoothSolver:  Solving for k, Initial residual = 0.000323373543143, Final residual = 1.92317274197e-05, No Iterations 3
ExecutionTime = 106.75 s  ClockTime = 107 s

Time = 185

smoothSolver:  Solving for Ux, Initial residual = 2.83332049996e-05, Final residual = 1.94060163449e-06, No Iterations 3
smoothSolver:  Solving for Uy, Initial residual = 0.000178235540547, Final residual = 1.40710957743e-05, No Iterations 3
smoothSolver:  Solving for Uz, Initial residual = 0.000197749623093, Final residual = 9.37760877488e-06, No Iterations 3
GAMG:  Solving for p, Initial residual = 0.00031058935079, Final residual = 2.80116975952e-05, No Iterations 3
time step continuity errors : sum local = 7.00928129876e-08, global = -5.08068914911e-09, cumulative = -0.000114196322025
smoothSolver:  Solving for epsilon, Initial residual = 6.1222745157e-06, Final residual = 2.76365098293e-07, No Iterations 3
smoothSolver:  Solving for k, Initial residual = 0.000304080160609, Final residual = 1.80925342725e-05, No Iterations 3
ExecutionTime = 107.32 s  ClockTime = 108 s

Time = 186

smoothSolver:  Solving for Ux, Initial residual = 2.68329187608e-05, Final residual = 1.84012523034e-06, No Iterations 3
smoothSolver:  Solving for Uy, Initial residual = 0.000167474183086, Final residual = 1.33245504986e-05, No Iterations 3
smoothSolver:  Solving for Uz, Initial residual = 0.000187227791647, Final residual = 8.90108302542e-06, No Iterations 3
GAMG:  Solving for p, Initial residual = 0.000293379018894, Final residual = 2.64135608573e-05, No Iterations 3
time step continuity errors : sum local = 6.61079218021e-08, global = -4.77161881749e-09, cumulative = -0.000114201093644
smoothSolver:  Solving for epsilon, Initial residual = 5.82052980228e-06, Final residual = 2.62746217224e-07, No Iterations 3
smoothSolver:  Solving for k, Initial residual = 0.000286080561146, Final residual = 1.70296280174e-05, No Iterations 3
ExecutionTime = 107.89 s  ClockTime = 108 s

Time = 187

smoothSolver:  Solving for Ux, Initial residual = 2.54118924466e-05, Final residual = 1.74482556427e-06, No Iterations 3
smoothSolver:  Solving for Uy, Initial residual = 0.000157218161623, Final residual = 1.2599088902e-05, No Iterations 3
smoothSolver:  Solving for Uz, Initial residual = 0.000177248158206, Final residual = 8.44762951943e-06, No Iterations 3
GAMG:  Solving for p, Initial residual = 0.000277091761685, Final residual = 2.4916316342e-05, No Iterations 3
time step continuity errors : sum local = 6.2372998269e-08, global = -4.48008297619e-09, cumulative = -0.000114205573727
smoothSolver:  Solving for epsilon, Initial residual = 5.53308627129e-06, Final residual = 2.49766139774e-07, No Iterations 3
smoothSolver:  Solving for k, Initial residual = 0.000269278925681, Final residual = 1.60357677745e-05, No Iterations 3
ExecutionTime = 108.46 s  ClockTime = 109 s

Time = 188

smoothSolver:  Solving for Ux, Initial residual = 2.40668130016e-05, Final residual = 1.65449766219e-06, No Iterations 3
smoothSolver:  Solving for Uy, Initial residual = 0.000147464646471, Final residual = 1.1895739306e-05, No Iterations 3
smoothSolver:  Solving for Uz, Initial residual = 0.000167790231098, Final residual = 8.01631096605e-06, No Iterations 3
GAMG:  Solving for p, Initial residual = 0.000261700048291, Final residual = 2.35084049332e-05, No Iterations 3
time step continuity errors : sum local = 5.88594794922e-08, global = -4.20888702895e-09, cumulative = -0.000114209782614
smoothSolver:  Solving for epsilon, Initial residual = 5.25954424125e-06, Final residual = 2.37407626648e-07, No Iterations 3
smoothSolver:  Solving for k, Initial residual = 0.000253582636647, Final residual = 1.5105737834e-05, No Iterations 3
ExecutionTime = 109.03 s  ClockTime = 109 s

Time = 189

smoothSolver:  Solving for Ux, Initial residual = 2.27945410582e-05, Final residual = 1.56893351991e-06, No Iterations 3
smoothSolver:  Solving for Uy, Initial residual = 0.000138197469603, Final residual = 1.12150676743e-05, No Iterations 3
smoothSolver:  Solving for Uz, Initial residual = 0.000158830728517, Final residual = 7.60612849282e-06, No Iterations 3
GAMG:  Solving for p, Initial residual = 0.000247134868772, Final residual = 2.21880009813e-05, No Iterations 3
time step continuity errors : sum local = 5.55631122825e-08, global = -3.95885775272e-09, cumulative = -0.000114213741471
smoothSolver:  Solving for epsilon, Initial residual = 4.99904919783e-06, Final residual = 2.25625598594e-07, No Iterations 3
smoothSolver:  Solving for k, Initial residual = 0.000238902415521, Final residual = 1.4234701998e-05, No Iterations 3
ExecutionTime = 109.6 s  ClockTime = 110 s

Time = 190

smoothSolver:  Solving for Ux, Initial residual = 2.15919478983e-05, Final residual = 1.48788796164e-06, No Iterations 3
smoothSolver:  Solving for Uy, Initial residual = 0.000129405450317, Final residual = 1.05581750836e-05, No Iterations 3
smoothSolver:  Solving for Uz, Initial residual = 0.000150347229451, Final residual = 7.21618755246e-06, No Iterations 3
GAMG:  Solving for p, Initial residual = 0.000233437726607, Final residual = 2.09512703714e-05, No Iterations 3
time step continuity errors : sum local = 5.24745884557e-08, global = -3.73016525894e-09, cumulative = -0.000114217471637
smoothSolver:  Solving for epsilon, Initial residual = 4.75129814449e-06, Final residual = 2.14396815674e-07, No Iterations 3
smoothSolver:  Solving for k, Initial residual = 0.000225154697931, Final residual = 1.34163734222e-05, No Iterations 3
ExecutionTime = 110.17 s  ClockTime = 111 s

Time = 191

smoothSolver:  Solving for Ux, Initial residual = 2.04554607108e-05, Final residual = 1.41111671163e-06, No Iterations 3
smoothSolver:  Solving for Uy, Initial residual = 0.000121082446894, Final residual = 9.92709161642e-06, No Iterations 3
smoothSolver:  Solving for Uz, Initial residual = 0.000142318378601, Final residual = 6.84565334138e-06, No Iterations 3
GAMG:  Solving for p, Initial residual = 0.000220600315581, Final residual = 1.98001398339e-05, No Iterations 3
time step continuity errors : sum local = 4.95989855007e-08, global = -3.51740875717e-09, cumulative = -0.000114220989045
smoothSolver:  Solving for epsilon, Initial residual = 4.51547415507e-06, Final residual = 2.03688763534e-07, No Iterations 3
smoothSolver:  Solving for k, Initial residual = 0.000212268344965, Final residual = 1.2647166102e-05, No Iterations 3
ExecutionTime = 110.74 s  ClockTime = 111 s

Time = 192

smoothSolver:  Solving for Ux, Initial residual = 1.93812697177e-05, Final residual = 1.33841152437e-06, No Iterations 3
smoothSolver:  Solving for Uy, Initial residual = 0.000113217917222, Final residual = 9.32268383963e-06, No Iterations 3
smoothSolver:  Solving for Uz, Initial residual = 0.000134725459645, Final residual = 6.49384388235e-06, No Iterations 3
GAMG:  Solving for p, Initial residual = 0.000208503326203, Final residual = 1.87237478788e-05, No Iterations 3
time step continuity errors : sum local = 4.69093190039e-08, global = -3.31751190702e-09, cumulative = -0.000114224306557
smoothSolver:  Solving for epsilon, Initial residual = 4.29074198349e-06, Final residual = 1.93468968776e-07, No Iterations 3
smoothSolver:  Solving for k, Initial residual = 0.000200177636756, Final residual = 1.19238778339e-05, No Iterations 3
ExecutionTime = 111.3 s  ClockTime = 112 s

Time = 193

smoothSolver:  Solving for Ux, Initial residual = 1.83662620786e-05, Final residual = 1.26956708872e-06, No Iterations 3
smoothSolver:  Solving for Uy, Initial residual = 0.000105794479905, Final residual = 8.74475889006e-06, No Iterations 3
smoothSolver:  Solving for Uz, Initial residual = 0.000127549300497, Final residual = 6.16004117043e-06, No Iterations 3
GAMG:  Solving for p, Initial residual = 0.000197095198351, Final residual = 1.77107930978e-05, No Iterations 3
time step continuity errors : sum local = 4.4377453183e-08, global = -3.12906707312e-09, cumulative = -0.000114227435624
smoothSolver:  Solving for epsilon, Initial residual = 4.07675265314e-06, Final residual = 1.83719219072e-07, No Iterations 3
smoothSolver:  Solving for k, Initial residual = 0.000188822820763, Final residual = 1.12431197051e-05, No Iterations 3
ExecutionTime = 111.88 s  ClockTime = 112 s

Time = 194

smoothSolver:  Solving for Ux, Initial residual = 1.74069738723e-05, Final residual = 1.2043870607e-06, No Iterations 3
smoothSolver:  Solving for Uy, Initial residual = 9.87995395874e-05, Final residual = 8.19300191645e-06, No Iterations 3
smoothSolver:  Solving for Uz, Initial residual = 0.000120768725449, Final residual = 5.8434288073e-06, No Iterations 3
GAMG:  Solving for p, Initial residual = 0.000186357481398, Final residual = 1.67548179098e-05, No Iterations 3
time step continuity errors : sum local = 4.19873630519e-08, global = -2.95169888752e-09, cumulative = -0.000114230387323
smoothSolver:  Solving for epsilon, Initial residual = 3.87290132213e-06, Final residual = 1.74395448489e-07, No Iterations 3
smoothSolver:  Solving for k, Initial residual = 0.000178145630003, Final residual = 1.06024773117e-05, No Iterations 3
ExecutionTime = 112.44 s  ClockTime = 113 s

Time = 195

smoothSolver:  Solving for Ux, Initial residual = 1.65001073343e-05, Final residual = 1.1426555688e-06, No Iterations 3
smoothSolver:  Solving for Uy, Initial residual = 9.22184539652e-05, Final residual = 7.66743658071e-06, No Iterations 3
smoothSolver:  Solving for Uz, Initial residual = 0.000114361047839, Final residual = 5.54312639704e-06, No Iterations 3
GAMG:  Solving for p, Initial residual = 0.000176221750643, Final residual = 1.58522866645e-05, No Iterations 3
time step continuity errors : sum local = 3.97303209074e-08, global = -2.78628179081e-09, cumulative = -0.000114233173605
smoothSolver:  Solving for epsilon, Initial residual = 3.67847961876e-06, Final residual = 1.65488822019e-07, No Iterations 3
smoothSolver:  Solving for k, Initial residual = 0.00016810031119, Final residual = 9.99872820628e-06, No Iterations 3
ExecutionTime = 113.01 s  ClockTime = 113 s

Time = 196

smoothSolver:  Solving for Ux, Initial residual = 1.56428193282e-05, Final residual = 1.0842054353e-06, No Iterations 3
smoothSolver:  Solving for Uy, Initial residual = 8.60421280313e-05, Final residual = 7.16803740503e-06, No Iterations 3
smoothSolver:  Solving for Uz, Initial residual = 0.00010830444081, Final residual = 5.25828142303e-06, No Iterations 3
GAMG:  Solving for p, Initial residual = 0.000166702916153, Final residual = 1.50038737402e-05, No Iterations 3
time step continuity errors : sum local = 3.76081380053e-08, global = -2.63158227632e-09, cumulative = -0.000114235805187
smoothSolver:  Solving for epsilon, Initial residual = 3.49309464012e-06, Final residual = 1.56984777699e-07, No Iterations 3
smoothSolver:  Solving for k, Initial residual = 0.000158651029858, Final residual = 9.43015003968e-06, No Iterations 3
ExecutionTime = 113.58 s  ClockTime = 114 s

Time = 197

smoothSolver:  Solving for Ux, Initial residual = 1.48324077527e-05, Final residual = 1.02885506876e-06, No Iterations 3
smoothSolver:  Solving for Uy, Initial residual = 8.02522045543e-05, Final residual = 6.69477742695e-06, No Iterations 3
smoothSolver:  Solving for Uz, Initial residual = 0.000102578881254, Final residual = 4.98810387776e-06, No Iterations 3
GAMG:  Solving for p, Initial residual = 0.000157746408056, Final residual = 1.42050777887e-05, No Iterations 3
time step continuity errors : sum local = 3.56096373931e-08, global = -2.48709077744e-09, cumulative = -0.000114238292278
smoothSolver:  Solving for epsilon, Initial residual = 3.31633931584e-06, Final residual = 1.48862942056e-07, No Iterations 3
smoothSolver:  Solving for k, Initial residual = 0.000149762803898, Final residual = 8.89468533665e-06, No Iterations 3
ExecutionTime = 114.16 s  ClockTime = 115 s

Time = 198

smoothSolver:  Solving for Ux, Initial residual = 1.40662381284e-05, Final residual = 9.76457426692e-07, No Iterations 3
smoothSolver:  Solving for Uy, Initial residual = 7.48314859421e-05, Final residual = 6.24719066701e-06, No Iterations 3
smoothSolver:  Solving for Uz, Initial residual = 9.71666832564e-05, Final residual = 4.73190223483e-06, No Iterations 3
GAMG:  Solving for p, Initial residual = 0.000149332661631, Final residual = 1.34522486817e-05, No Iterations 3
time step continuity errors : sum local = 3.37257587318e-08, global = -2.35237263628e-09, cumulative = -0.000114240644651
smoothSolver:  Solving for epsilon, Initial residual = 3.14785181196e-06, Final residual = 1.41116406965e-07, No Iterations 3
smoothSolver:  Solving for k, Initial residual = 0.000141398065701, Final residual = 8.390475043e-06, No Iterations 3
ExecutionTime = 114.73 s  ClockTime = 115 s

Time = 199

smoothSolver:  Solving for Ux, Initial residual = 1.33416127713e-05, Final residual = 9.26835535046e-07, No Iterations 3
smoothSolver:  Solving for Uy, Initial residual = 6.97617365175e-05, Final residual = 5.82471491526e-06, No Iterations 3
smoothSolver:  Solving for Uz, Initial residual = 9.20516618956e-05, Final residual = 4.48904429669e-06, No Iterations 3
GAMG:  Solving for p, Initial residual = 0.000141385750261, Final residual = 1.27430573355e-05, No Iterations 3
time step continuity errors : sum local = 3.19507431342e-08, global = -2.22513159492e-09, cumulative = -0.000114242869782
smoothSolver:  Solving for epsilon, Initial residual = 2.98741906635e-06, Final residual = 1.33740478837e-07, No Iterations 3
smoothSolver:  Solving for k, Initial residual = 0.000133524992314, Final residual = 7.91526450274e-06, No Iterations 3
ExecutionTime = 115.3 s  ClockTime = 116 s

Time = 200

smoothSolver:  Solving for Ux, Initial residual = 1.26562028504e-05, Final residual = 8.79866937828e-07, No Iterations 3
smoothSolver:  Solving for Uy, Initial residual = 6.50272617414e-05, Final residual = 5.42712864683e-06, No Iterations 3
smoothSolver:  Solving for Uz, Initial residual = 8.72184042279e-05, Final residual = 4.25891370036e-06, No Iterations 3
GAMG:  Solving for p, Initial residual = 0.000133889505453, Final residual = 1.20738289915e-05, No Iterations 3
time step continuity errors : sum local = 3.02754474523e-08, global = -2.1047382661e-09, cumulative = -0.000114244974521
smoothSolver:  Solving for epsilon, Initial residual = 2.83471858076e-06, Final residual = 1.26708581926e-07, No Iterations 3
smoothSolver:  Solving for k, Initial residual = 0.000126112032856, Final residual = 7.46824636488e-06, No Iterations 3
ExecutionTime = 115.87 s  ClockTime = 116 s

Time = 201

smoothSolver:  Solving for Ux, Initial residual = 1.20077715324e-05, Final residual = 8.35383786747e-07, No Iterations 3
smoothSolver:  Solving for Uy, Initial residual = 6.0606295366e-05, Final residual = 5.05366706667e-06, No Iterations 3
smoothSolver:  Solving for Uz, Initial residual = 8.26513660121e-05, Final residual = 4.04086191085e-06, No Iterations 3
GAMG:  Solving for p, Initial residual = 0.000126829205201, Final residual = 1.1442130242e-05, No Iterations 3
time step continuity errors : sum local = 2.86938315316e-08, global = -1.99088275174e-09, cumulative = -0.000114246965403
smoothSolver:  Solving for epsilon, Initial residual = 2.68938662391e-06, Final residual = 1.20018023231e-07, No Iterations 3
smoothSolver:  Solving for k, Initial residual = 0.000119129148358, Final residual = 7.04701295075e-06, No Iterations 3
ExecutionTime = 116.44 s  ClockTime = 117 s

Time = 202

smoothSolver:  Solving for Ux, Initial residual = 1.13943350308e-05, Final residual = 7.93242158411e-07, No Iterations 3
smoothSolver:  Solving for Uy, Initial residual = 5.64841372221e-05, Final residual = 4.70336214206e-06, No Iterations 3
smoothSolver:  Solving for Uz, Initial residual = 7.83357041267e-05, Final residual = 3.83428298673e-06, No Iterations 3
GAMG:  Solving for p, Initial residual = 0.00012016703456, Final residual = 1.08472279558e-05, No Iterations 3
time step continuity errors : sum local = 2.72041123492e-08, global = -1.88316613889e-09, cumulative = -0.000114248848569
smoothSolver:  Solving for epsilon, Initial residual = 2.55126049404e-06, Final residual = 1.13659779364e-07, No Iterations 3
smoothSolver:  Solving for k, Initial residual = 0.000112553773191, Final residual = 6.65006375957e-06, No Iterations 3
ExecutionTime = 117.02 s  ClockTime = 117 s

Time = 203

smoothSolver:  Solving for Ux, Initial residual = 1.08139381821e-05, Final residual = 7.53318482794e-07, No Iterations 3
smoothSolver:  Solving for Uy, Initial residual = 5.2646793454e-05, Final residual = 4.37526216918e-06, No Iterations 3
smoothSolver:  Solving for Uz, Initial residual = 7.42565224787e-05, Final residual = 3.63859983931e-06, No Iterations 3
GAMG:  Solving for p, Initial residual = 0.000113880277459, Final residual = 1.02868786495e-05, No Iterations 3
time step continuity errors : sum local = 2.580071287e-08, global = -1.78108069766e-09, cumulative = -0.00011425062965
smoothSolver:  Solving for epsilon, Initial residual = 2.41998788952e-06, Final residual = 1.0761699363e-07, No Iterations 3
smoothSolver:  Solving for k, Initial residual = 0.000106362977965, Final residual = 6.27693025815e-06, No Iterations 3
ExecutionTime = 117.58 s  ClockTime = 118 s

Time = 204

smoothSolver:  Solving for Ux, Initial residual = 1.02647240745e-05, Final residual = 7.15496815498e-07, No Iterations 3
smoothSolver:  Solving for Uy, Initial residual = 4.90747488527e-05, Final residual = 4.06840867982e-06, No Iterations 3
smoothSolver:  Solving for Uz, Initial residual = 7.0400247444e-05, Final residual = 3.45326474601e-06, No Iterations 3
GAMG:  Solving for p, Initial residual = 0.00010794022088, Final residual = 9.75727542824e-06, No Iterations 3
time step continuity errors : sum local = 2.44741275319e-08, global = -1.6844812503e-09, cumulative = -0.000114252314131
smoothSolver:  Solving for epsilon, Initial residual = 2.29526767761e-06, Final residual = 1.0187977591e-07, No Iterations 3
smoothSolver:  Solving for k, Initial residual = 0.000100534356848, Final residual = 5.92561846345e-06, No Iterations 3
ExecutionTime = 118.16 s  ClockTime = 119 s

Time = 205

smoothSolver:  Solving for Ux, Initial residual = 9.74485270992e-06, Final residual = 6.7966960966e-07, No Iterations 3
smoothSolver:  Solving for Uy, Initial residual = 4.57537993931e-05, Final residual = 3.78194717169e-06, No Iterations 3
smoothSolver:  Solving for Uz, Initial residual = 6.67546103968e-05, Final residual = 3.27773399587e-06, No Iterations 3
GAMG:  Solving for p, Initial residual = 0.000102325791019, Final residual = 9.25719225737e-06, No Iterations 3
time step continuity errors : sum local = 2.32213184892e-08, global = -1.59343758094e-09, cumulative = -0.000114253907569
smoothSolver:  Solving for epsilon, Initial residual = 2.17683452689e-06, Final residual = 9.64355730225e-08, No Iterations 3
smoothSolver:  Solving for k, Initial residual = 9.50453752159e-05, Final residual = 5.5949975823e-06, No Iterations 3
ExecutionTime = 118.73 s  ClockTime = 119 s


SIMPLE solution converged in 205 iterations

End

