/*---------------------------------------------------------------------------*\
| =========                 |                                                 |
| \\      /  F ield         | OpenFOAM: The Open Source CFD Toolbox           |
|  \\    /   O peration     | Version:  4.0                                   |
|   \\  /    A nd           | Web:      www.OpenFOAM.org                      |
|    \\/     M anipulation  |                                                 |
\*---------------------------------------------------------------------------*/
Build  : 4.0-665f1db4c1f1
Exec   : simpleFoam -parallel
Date   : Feb 17 2017
Time   : 15:47:27
Host   : "radunz-Aspire-E5-571"
PID    : 29556
Case   : /home/radunz/OpenFOAM/radunz-4.1/run/incompressible/simpleFoam/turbineSitingEmptyWest
nProcs : 4
Slaves : 
3
(
"radunz-Aspire-E5-571.29557"
"radunz-Aspire-E5-571.29558"
"radunz-Aspire-E5-571.29559"
)

Pstream initialized with:
    floatTransfer      : 0
    nProcsSimpleSum    : 0
    commsType          : nonBlocking
    polling iterations : 0
sigFpe : Enabling floating point exception trapping (FOAM_SIGFPE).
fileModificationChecking : Monitoring run-time modified files using timeStampMaster
allowSystemOperations : Allowing user-supplied system call operations

// * * * * * * * * * * * * * * * * * * * * * * * * * * * * * * * * * * * * * //
Create time

Create mesh for time = 0


SIMPLE: convergence criteria
    field p	 tolerance 0.001
    field U	 tolerance 0.0001
    field "(k|epsilon)"	 tolerance 0.0001

Reading field p

Reading field U

Reading/calculating face flux field phi

Selecting incompressible transport model Newtonian
Selecting turbulence model type RAS
Selecting RAS turbulence model kEpsilon
bounding k, min: 0 max: 1.992293254 average: 1.3
bounding epsilon, min: 0 max: 0.27340907425 average: 0.00999999999999
kEpsilonCoeffs
{
    Cmu             0.09;
    C1              1.44;
    C2              1.92;
    sigmaEps        1.11;
    C3              -0.33;
    sigmak          1;
}

No MRF models present

Creating finite volume options from "constant/fvOptions"


Starting time loop

Time = 1

smoothSolver:  Solving for Ux, Initial residual = 1, Final residual = 0.0578770998541, No Iterations 1
smoothSolver:  Solving for Uy, Initial residual = 1, Final residual = 0.0652829889992, No Iterations 3
smoothSolver:  Solving for Uz, Initial residual = 1, Final residual = 0.0959420337767, No Iterations 3
GAMG:  Solving for p, Initial residual = 1, Final residual = 0.0307630833083, No Iterations 4
time step continuity errors : sum local = 0.000481967783567, global = -9.35660392633e-05, cumulative = -9.35660392633e-05
smoothSolver:  Solving for epsilon, Initial residual = 0.174365913286, Final residual = 0.0118830420897, No Iterations 3
smoothSolver:  Solving for k, Initial residual = 0.999999999991, Final residual = 0.0825515152787, No Iterations 5
ExecutionTime = 0.71 s  ClockTime = 1 s

Time = 2

smoothSolver:  Solving for Ux, Initial residual = 0.247948124489, Final residual = 0.0160971981974, No Iterations 6
smoothSolver:  Solving for Uy, Initial residual = 0.350099996848, Final residual = 0.0226073309407, No Iterations 5
smoothSolver:  Solving for Uz, Initial residual = 0.299552115415, Final residual = 0.0213876551752, No Iterations 5
GAMG:  Solving for p, Initial residual = 0.151808411967, Final residual = 0.0123418824761, No Iterations 6
time step continuity errors : sum local = 0.000951213009241, global = -1.59823184982e-05, cumulative = -0.000109548357762
smoothSolver:  Solving for epsilon, Initial residual = 0.0278087376391, Final residual = 0.00158532363217, No Iterations 4
smoothSolver:  Solving for k, Initial residual = 0.395231376686, Final residual = 0.025089485549, No Iterations 5
ExecutionTime = 1.28 s  ClockTime = 2 s

Time = 3

smoothSolver:  Solving for Ux, Initial residual = 0.399528914251, Final residual = 0.0258631468508, No Iterations 6
smoothSolver:  Solving for Uy, Initial residual = 0.358475005562, Final residual = 0.0273560998856, No Iterations 5
smoothSolver:  Solving for Uz, Initial residual = 0.291625192121, Final residual = 0.0244070005943, No Iterations 5
GAMG:  Solving for p, Initial residual = 0.0366082781752, Final residual = 0.00237037745857, No Iterations 3
time step continuity errors : sum local = 0.000607002067877, global = 7.70122338059e-06, cumulative = -0.000101847134381
smoothSolver:  Solving for epsilon, Initial residual = 0.0194607634677, Final residual = 0.00130849055065, No Iterations 4
smoothSolver:  Solving for k, Initial residual = 0.351792377951, Final residual = 0.0218103305418, No Iterations 5
ExecutionTime = 1.79 s  ClockTime = 2 s

Time = 4

smoothSolver:  Solving for Ux, Initial residual = 0.179864382129, Final residual = 0.0177656534434, No Iterations 5
smoothSolver:  Solving for Uy, Initial residual = 0.207091113163, Final residual = 0.0165956386444, No Iterations 5
smoothSolver:  Solving for Uz, Initial residual = 0.168087657798, Final residual = 0.0146239850022, No Iterations 5
GAMG:  Solving for p, Initial residual = 0.0755354013697, Final residual = 0.00537475264664, No Iterations 4
time step continuity errors : sum local = 0.000875076543172, global = 4.24058408604e-05, cumulative = -5.94412935206e-05
smoothSolver:  Solving for epsilon, Initial residual = 0.0122371550822, Final residual = 0.000723122929513, No Iterations 4
smoothSolver:  Solving for k, Initial residual = 0.262729875966, Final residual = 0.0158824327634, No Iterations 5
ExecutionTime = 2.31 s  ClockTime = 3 s

Time = 5

smoothSolver:  Solving for Ux, Initial residual = 0.0609123891031, Final residual = 0.00570920950753, No Iterations 5
smoothSolver:  Solving for Uy, Initial residual = 0.14064716666, Final residual = 0.010107146542, No Iterations 5
smoothSolver:  Solving for Uz, Initial residual = 0.0930892637432, Final residual = 0.00556811573807, No Iterations 5
GAMG:  Solving for p, Initial residual = 0.157071406165, Final residual = 0.0129143045366, No Iterations 4
time step continuity errors : sum local = 0.000699319043623, global = 2.91763315222e-05, cumulative = -3.02649619983e-05
smoothSolver:  Solving for epsilon, Initial residual = 0.00689835124721, Final residual = 0.000392885904892, No Iterations 4
smoothSolver:  Solving for k, Initial residual = 0.145311137938, Final residual = 0.0142690818338, No Iterations 4
ExecutionTime = 2.82 s  ClockTime = 3 s

Time = 6

smoothSolver:  Solving for Ux, Initial residual = 0.219539696614, Final residual = 0.0212703073623, No Iterations 5
smoothSolver:  Solving for Uy, Initial residual = 0.148733780162, Final residual = 0.0115806354755, No Iterations 5
smoothSolver:  Solving for Uz, Initial residual = 0.142631264518, Final residual = 0.0112139169497, No Iterations 5
GAMG:  Solving for p, Initial residual = 0.0609549663043, Final residual = 0.00593769893149, No Iterations 2
time step continuity errors : sum local = 0.000861317381616, global = -0.000110583527368, cumulative = -0.000140848489367
smoothSolver:  Solving for epsilon, Initial residual = 0.00776158659867, Final residual = 0.000613272781453, No Iterations 3
smoothSolver:  Solving for k, Initial residual = 0.0850798383266, Final residual = 0.00754787932085, No Iterations 4
ExecutionTime = 3.3 s  ClockTime = 4 s

Time = 7

smoothSolver:  Solving for Ux, Initial residual = 0.157068599123, Final residual = 0.014940492067, No Iterations 5
smoothSolver:  Solving for Uy, Initial residual = 0.186826963384, Final residual = 0.0149601680441, No Iterations 5
smoothSolver:  Solving for Uz, Initial residual = 0.203630296775, Final residual = 0.0172690017408, No Iterations 5
GAMG:  Solving for p, Initial residual = 0.0898680059397, Final residual = 0.00696180132879, No Iterations 4
time step continuity errors : sum local = 0.000666304026956, global = -2.56714479876e-05, cumulative = -0.000166519937354
smoothSolver:  Solving for epsilon, Initial residual = 0.00920959447304, Final residual = 0.00073776471772, No Iterations 3
smoothSolver:  Solving for k, Initial residual = 0.0593920054331, Final residual = 0.00508630957118, No Iterations 4
ExecutionTime = 3.8 s  ClockTime = 4 s

Time = 8

smoothSolver:  Solving for Ux, Initial residual = 0.0471023262929, Final residual = 0.00416208299827, No Iterations 5
smoothSolver:  Solving for Uy, Initial residual = 0.199734936229, Final residual = 0.0147601904283, No Iterations 5
smoothSolver:  Solving for Uz, Initial residual = 0.138653200723, Final residual = 0.0102899176051, No Iterations 5
GAMG:  Solving for p, Initial residual = 0.176122994352, Final residual = 0.0141246584234, No Iterations 4
time step continuity errors : sum local = 0.000437856763064, global = -1.91889944811e-05, cumulative = -0.000185708931835
smoothSolver:  Solving for epsilon, Initial residual = 0.00989852317048, Final residual = 0.000581075537806, No Iterations 4
smoothSolver:  Solving for k, Initial residual = 0.0497023666386, Final residual = 0.00489112015015, No Iterations 4
ExecutionTime = 4.34 s  ClockTime = 5 s

Time = 9

smoothSolver:  Solving for Ux, Initial residual = 0.112102214184, Final residual = 0.0102387074595, No Iterations 5
smoothSolver:  Solving for Uy, Initial residual = 0.141144352688, Final residual = 0.0098520679881, No Iterations 5
smoothSolver:  Solving for Uz, Initial residual = 0.112552507071, Final residual = 0.00859937685589, No Iterations 5
GAMG:  Solving for p, Initial residual = 0.0665377769778, Final residual = 0.00580396100114, No Iterations 2
time step continuity errors : sum local = 0.000497404177243, global = 5.57201129545e-05, cumulative = -0.000129988818881
smoothSolver:  Solving for epsilon, Initial residual = 0.0110713278615, Final residual = 0.00085611536795, No Iterations 4
smoothSolver:  Solving for k, Initial residual = 0.0548536043452, Final residual = 0.00314682025577, No Iterations 5
ExecutionTime = 4.85 s  ClockTime = 6 s

Time = 10

smoothSolver:  Solving for Ux, Initial residual = 0.0670235210949, Final residual = 0.0059607390265, No Iterations 5
smoothSolver:  Solving for Uy, Initial residual = 0.132107531707, Final residual = 0.0101186455516, No Iterations 5
smoothSolver:  Solving for Uz, Initial residual = 0.12993591002, Final residual = 0.0104638971573, No Iterations 5
GAMG:  Solving for p, Initial residual = 0.0898210999064, Final residual = 0.00801573738181, No Iterations 3
time step continuity errors : sum local = 0.000461313182431, global = 1.63724991733e-05, cumulative = -0.000113616319708
smoothSolver:  Solving for epsilon, Initial residual = 0.0112144769038, Final residual = 0.000893297670096, No Iterations 4
smoothSolver:  Solving for k, Initial residual = 0.0512042617822, Final residual = 0.0029414244724, No Iterations 5
ExecutionTime = 5.38 s  ClockTime = 6 s

Time = 11

smoothSolver:  Solving for Ux, Initial residual = 0.0237973444392, Final residual = 0.00195101822448, No Iterations 5
smoothSolver:  Solving for Uy, Initial residual = 0.109681073046, Final residual = 0.00777200400416, No Iterations 5
smoothSolver:  Solving for Uz, Initial residual = 0.0879029312582, Final residual = 0.006318884352, No Iterations 5
GAMG:  Solving for p, Initial residual = 0.202306214925, Final residual = 0.0125880246315, No Iterations 4
time step continuity errors : sum local = 0.000209899500435, global = 1.00136934777e-05, cumulative = -0.00010360262623
smoothSolver:  Solving for epsilon, Initial residual = 0.0090011779315, Final residual = 0.000737625125008, No Iterations 4
smoothSolver:  Solving for k, Initial residual = 0.0387615862581, Final residual = 0.00224330646747, No Iterations 5
ExecutionTime = 5.93 s  ClockTime = 7 s

Time = 12

smoothSolver:  Solving for Ux, Initial residual = 0.0604652759443, Final residual = 0.0053006061253, No Iterations 5
smoothSolver:  Solving for Uy, Initial residual = 0.0708790685483, Final residual = 0.00484122063857, No Iterations 5
smoothSolver:  Solving for Uz, Initial residual = 0.0525750810546, Final residual = 0.00340321778131, No Iterations 5
GAMG:  Solving for p, Initial residual = 0.0750075848208, Final residual = 0.00637552503529, No Iterations 2
time step continuity errors : sum local = 0.000311113247981, global = -3.49585764212e-05, cumulative = -0.000138561202651
smoothSolver:  Solving for epsilon, Initial residual = 0.00717485637617, Final residual = 0.000579637529147, No Iterations 4
smoothSolver:  Solving for k, Initial residual = 0.0292029493574, Final residual = 0.00289882311121, No Iterations 4
ExecutionTime = 6.42 s  ClockTime = 7 s

Time = 13

smoothSolver:  Solving for Ux, Initial residual = 0.0426021458195, Final residual = 0.00368182148946, No Iterations 5
smoothSolver:  Solving for Uy, Initial residual = 0.0765637303221, Final residual = 0.00569834443894, No Iterations 5
smoothSolver:  Solving for Uz, Initial residual = 0.0832430572232, Final residual = 0.00638449698182, No Iterations 5
GAMG:  Solving for p, Initial residual = 0.0985646099287, Final residual = 0.00700383174112, No Iterations 3
time step continuity errors : sum local = 0.000236958193165, global = -1.3782642497e-05, cumulative = -0.000152343845148
smoothSolver:  Solving for epsilon, Initial residual = 0.00636273895161, Final residual = 0.000502725344404, No Iterations 4
smoothSolver:  Solving for k, Initial residual = 0.0245515273637, Final residual = 0.0023669735892, No Iterations 4
ExecutionTime = 6.91 s  ClockTime = 8 s

Time = 14

smoothSolver:  Solving for Ux, Initial residual = 0.0158121075948, Final residual = 0.00119782619238, No Iterations 5
smoothSolver:  Solving for Uy, Initial residual = 0.0867876045338, Final residual = 0.00600354806891, No Iterations 5
smoothSolver:  Solving for Uz, Initial residual = 0.0761285054931, Final residual = 0.00567768028726, No Iterations 5
GAMG:  Solving for p, Initial residual = 0.22619171454, Final residual = 0.0210720506727, No Iterations 3
time step continuity errors : sum local = 0.000208136254265, global = -9.4180900494e-06, cumulative = -0.000161761935197
smoothSolver:  Solving for epsilon, Initial residual = 0.00624116149682, Final residual = 0.000504542842481, No Iterations 4
smoothSolver:  Solving for k, Initial residual = 0.022135987983, Final residual = 0.00218420444583, No Iterations 4
ExecutionTime = 7.4 s  ClockTime = 8 s

Time = 15

smoothSolver:  Solving for Ux, Initial residual = 0.0343969347003, Final residual = 0.00277210057076, No Iterations 5
smoothSolver:  Solving for Uy, Initial residual = 0.0697316982527, Final residual = 0.00467937564407, No Iterations 5
smoothSolver:  Solving for Uz, Initial residual = 0.0428987515821, Final residual = 0.00278035917013, No Iterations 5
GAMG:  Solving for p, Initial residual = 0.0782529676364, Final residual = 0.00760241651497, No Iterations 2
time step continuity errors : sum local = 0.00022089534915, global = 2.72410279235e-05, cumulative = -0.000134520907274
smoothSolver:  Solving for epsilon, Initial residual = 0.00652393882471, Final residual = 0.000527304823413, No Iterations 4
smoothSolver:  Solving for k, Initial residual = 0.0217473229482, Final residual = 0.00212470552317, No Iterations 4
ExecutionTime = 7.89 s  ClockTime = 9 s

Time = 16

smoothSolver:  Solving for Ux, Initial residual = 0.023941436854, Final residual = 0.00190646477064, No Iterations 5
smoothSolver:  Solving for Uy, Initial residual = 0.0574794118704, Final residual = 0.00411020649261, No Iterations 5
smoothSolver:  Solving for Uz, Initial residual = 0.0580550296971, Final residual = 0.00433071147041, No Iterations 5
GAMG:  Solving for p, Initial residual = 0.0939195969272, Final residual = 0.00535718977578, No Iterations 3
time step continuity errors : sum local = 0.000115615192481, global = 8.55981376901e-06, cumulative = -0.000125961093505
smoothSolver:  Solving for epsilon, Initial residual = 0.00626347375805, Final residual = 0.000505815352175, No Iterations 4
smoothSolver:  Solving for k, Initial residual = 0.0201198329508, Final residual = 0.00193737881537, No Iterations 4
ExecutionTime = 8.39 s  ClockTime = 9 s

Time = 17

smoothSolver:  Solving for Ux, Initial residual = 0.00952497451871, Final residual = 0.000667071798838, No Iterations 5
smoothSolver:  Solving for Uy, Initial residual = 0.0515638690499, Final residual = 0.00347745091867, No Iterations 5
smoothSolver:  Solving for Uz, Initial residual = 0.0581819623908, Final residual = 0.00428923202113, No Iterations 5
GAMG:  Solving for p, Initial residual = 0.307935179024, Final residual = 0.0260614349304, No Iterations 3
time step continuity errors : sum local = 0.000115853964411, global = 7.52991803892e-06, cumulative = -0.000118431175466
smoothSolver:  Solving for epsilon, Initial residual = 0.00542355275567, Final residual = 0.000437746345181, No Iterations 4
smoothSolver:  Solving for k, Initial residual = 0.01712369915, Final residual = 0.00162248118588, No Iterations 4
ExecutionTime = 8.89 s  ClockTime = 10 s

Time = 18

smoothSolver:  Solving for Ux, Initial residual = 0.0187279934121, Final residual = 0.00145785543317, No Iterations 5
smoothSolver:  Solving for Uy, Initial residual = 0.0371281287152, Final residual = 0.00235801882809, No Iterations 5
smoothSolver:  Solving for Uz, Initial residual = 0.0327592141767, Final residual = 0.002125189921, No Iterations 5
GAMG:  Solving for p, Initial residual = 0.0913725465571, Final residual = 0.00444977356016, No Iterations 3
time step continuity errors : sum local = 6.96568535043e-05, global = -2.19212153325e-06, cumulative = -0.000120623296999
smoothSolver:  Solving for epsilon, Initial residual = 0.00458667037296, Final residual = 0.000369431556425, No Iterations 4
smoothSolver:  Solving for k, Initial residual = 0.0147661494724, Final residual = 0.00135218700807, No Iterations 4
ExecutionTime = 9.37 s  ClockTime = 10 s

Time = 19

smoothSolver:  Solving for Ux, Initial residual = 0.0139193577795, Final residual = 0.00109393928726, No Iterations 5
smoothSolver:  Solving for Uy, Initial residual = 0.032995574401, Final residual = 0.00217250119195, No Iterations 5
smoothSolver:  Solving for Uz, Initial residual = 0.0308532196294, Final residual = 0.00214161821813, No Iterations 5
GAMG:  Solving for p, Initial residual = 0.108912062538, Final residual = 0.00555673475938, No Iterations 3
time step continuity errors : sum local = 6.56883970636e-05, global = -5.17509099947e-06, cumulative = -0.000125798387999
smoothSolver:  Solving for epsilon, Initial residual = 0.00407911230166, Final residual = 0.000326674353229, No Iterations 4
smoothSolver:  Solving for k, Initial residual = 0.0132853636527, Final residual = 0.00119539745525, No Iterations 4
ExecutionTime = 9.89 s  ClockTime = 11 s

Time = 20

smoothSolver:  Solving for Ux, Initial residual = 0.00628151442017, Final residual = 0.000404759727648, No Iterations 5
smoothSolver:  Solving for Uy, Initial residual = 0.036799866493, Final residual = 0.00237646609103, No Iterations 5
smoothSolver:  Solving for Uz, Initial residual = 0.0365073886196, Final residual = 0.00272195595043, No Iterations 5
GAMG:  Solving for p, Initial residual = 0.243563822165, Final residual = 0.0187908633847, No Iterations 3
time step continuity errors : sum local = 7.15781391518e-05, global = -5.23225235106e-06, cumulative = -0.00013103064035
smoothSolver:  Solving for epsilon, Initial residual = 0.00384825460323, Final residual = 0.000306713694814, No Iterations 4
smoothSolver:  Solving for k, Initial residual = 0.0120419743941, Final residual = 0.00108155743438, No Iterations 4
ExecutionTime = 10.42 s  ClockTime = 11 s

Time = 21

smoothSolver:  Solving for Ux, Initial residual = 0.0112944229018, Final residual = 0.000799970545497, No Iterations 5
smoothSolver:  Solving for Uy, Initial residual = 0.0325949909836, Final residual = 0.00203997803861, No Iterations 5
smoothSolver:  Solving for Uz, Initial residual = 0.0249368762506, Final residual = 0.00173164004998, No Iterations 5
GAMG:  Solving for p, Initial residual = 0.0890659792632, Final residual = 0.00464280770473, No Iterations 3
time step continuity errors : sum local = 4.74688583454e-05, global = 6.27200575824e-07, cumulative = -0.000130403439774
smoothSolver:  Solving for epsilon, Initial residual = 0.00373594311809, Final residual = 0.000294572361505, No Iterations 4
smoothSolver:  Solving for k, Initial residual = 0.0110385469418, Final residual = 0.000982495827973, No Iterations 4
ExecutionTime = 10.93 s  ClockTime = 12 s

Time = 22

smoothSolver:  Solving for Ux, Initial residual = 0.00858497772892, Final residual = 0.000610261427554, No Iterations 5
smoothSolver:  Solving for Uy, Initial residual = 0.0269713231319, Final residual = 0.00168905279459, No Iterations 5
smoothSolver:  Solving for Uz, Initial residual = 0.0270952682626, Final residual = 0.00183807603359, No Iterations 5
GAMG:  Solving for p, Initial residual = 0.0923858650004, Final residual = 0.00473838415684, No Iterations 3
time step continuity errors : sum local = 4.0417629076e-05, global = 2.33217115271e-06, cumulative = -0.000128071268621
smoothSolver:  Solving for epsilon, Initial residual = 0.0035430097657, Final residual = 0.00027670914593, No Iterations 4
smoothSolver:  Solving for k, Initial residual = 0.0100173951966, Final residual = 0.000884499905348, No Iterations 4
ExecutionTime = 11.44 s  ClockTime = 13 s

Time = 23

smoothSolver:  Solving for Ux, Initial residual = 0.00417461711441, Final residual = 0.000252627906991, No Iterations 5
smoothSolver:  Solving for Uy, Initial residual = 0.0237967185553, Final residual = 0.00146668981386, No Iterations 5
smoothSolver:  Solving for Uz, Initial residual = 0.0296850959461, Final residual = 0.0021003960169, No Iterations 5
GAMG:  Solving for p, Initial residual = 0.221239191339, Final residual = 0.0160544233906, No Iterations 3
time step continuity errors : sum local = 4.19026610951e-05, global = 3.00053666799e-06, cumulative = -0.000125070731953
smoothSolver:  Solving for epsilon, Initial residual = 0.00323953882276, Final residual = 0.000251786957822, No Iterations 4
smoothSolver:  Solving for k, Initial residual = 0.00903706520137, Final residual = 0.000798410380096, No Iterations 4
ExecutionTime = 11.97 s  ClockTime = 13 s

Time = 24

smoothSolver:  Solving for Ux, Initial residual = 0.00649884753281, Final residual = 0.000447013998196, No Iterations 5
smoothSolver:  Solving for Uy, Initial residual = 0.0189819251547, Final residual = 0.00109921019247, No Iterations 5
smoothSolver:  Solving for Uz, Initial residual = 0.0201735251504, Final residual = 0.0013702353101, No Iterations 5
GAMG:  Solving for p, Initial residual = 0.111433748381, Final residual = 0.00604833134506, No Iterations 3
time step continuity errors : sum local = 3.05162032193e-05, global = -1.55729012164e-06, cumulative = -0.000126628022075
smoothSolver:  Solving for epsilon, Initial residual = 0.00292388702145, Final residual = 0.000226727865736, No Iterations 4
smoothSolver:  Solving for k, Initial residual = 0.00836922997649, Final residual = 0.0007469595931, No Iterations 4
ExecutionTime = 12.47 s  ClockTime = 14 s

Time = 25

smoothSolver:  Solving for Ux, Initial residual = 0.00535891889465, Final residual = 0.00037755027317, No Iterations 5
smoothSolver:  Solving for Uy, Initial residual = 0.0173855579338, Final residual = 0.00101899754192, No Iterations 5
smoothSolver:  Solving for Uz, Initial residual = 0.0143164623812, Final residual = 0.000895237103025, No Iterations 5
GAMG:  Solving for p, Initial residual = 0.117092779956, Final residual = 0.0056988986747, No Iterations 3
time step continuity errors : sum local = 2.50112288261e-05, global = 4.04562225994e-07, cumulative = -0.000126223459849
smoothSolver:  Solving for epsilon, Initial residual = 0.00267404940474, Final residual = 0.000207580815833, No Iterations 4
smoothSolver:  Solving for k, Initial residual = 0.0078818240467, Final residual = 0.000716176370368, No Iterations 4
ExecutionTime = 12.97 s  ClockTime = 14 s

Time = 26

smoothSolver:  Solving for Ux, Initial residual = 0.00307928421044, Final residual = 0.000175945471867, No Iterations 5
smoothSolver:  Solving for Uy, Initial residual = 0.0182733755521, Final residual = 0.001080292065, No Iterations 5
smoothSolver:  Solving for Uz, Initial residual = 0.0167308484538, Final residual = 0.00119363926117, No Iterations 5
GAMG:  Solving for p, Initial residual = 0.169928085143, Final residual = 0.0108466872155, No Iterations 3
time step continuity errors : sum local = 2.59547474816e-05, global = -1.45744927101e-06, cumulative = -0.00012768090912
smoothSolver:  Solving for epsilon, Initial residual = 0.00249457338, Final residual = 0.000193278546554, No Iterations 4
smoothSolver:  Solving for k, Initial residual = 0.00741855719872, Final residual = 0.000686643566988, No Iterations 4
ExecutionTime = 13.5 s  ClockTime = 15 s

Time = 27

smoothSolver:  Solving for Ux, Initial residual = 0.00435007294332, Final residual = 0.000272618148473, No Iterations 5
smoothSolver:  Solving for Uy, Initial residual = 0.0167990299379, Final residual = 0.000953709342791, No Iterations 5
smoothSolver:  Solving for Uz, Initial residual = 0.0146948562935, Final residual = 0.00101834201878, No Iterations 5
GAMG:  Solving for p, Initial residual = 0.0843327341381, Final residual = 0.00495082715225, No Iterations 3
time step continuity errors : sum local = 2.20792251701e-05, global = 1.14381338594e-06, cumulative = -0.000126537095734
smoothSolver:  Solving for epsilon, Initial residual = 0.00235497892943, Final residual = 0.000181286468113, No Iterations 4
smoothSolver:  Solving for k, Initial residual = 0.00698933334875, Final residual = 0.000656631296813, No Iterations 4
ExecutionTime = 14.01 s  ClockTime = 15 s

Time = 28

smoothSolver:  Solving for Ux, Initial residual = 0.00358055995336, Final residual = 0.000225889222179, No Iterations 5
smoothSolver:  Solving for Uy, Initial residual = 0.0153204747594, Final residual = 0.000868173979009, No Iterations 5
smoothSolver:  Solving for Uz, Initial residual = 0.0143686048943, Final residual = 0.000897646632188, No Iterations 5
GAMG:  Solving for p, Initial residual = 0.078500528507, Final residual = 0.00396402886859, No Iterations 3
time step continuity errors : sum local = 1.66846789844e-05, global = -1.35499498045e-06, cumulative = -0.000127892090714
smoothSolver:  Solving for epsilon, Initial residual = 0.00221225842285, Final residual = 0.000169144265313, No Iterations 4
smoothSolver:  Solving for k, Initial residual = 0.00662830780309, Final residual = 0.00063248673476, No Iterations 4
ExecutionTime = 14.51 s  ClockTime = 16 s

Time = 29

smoothSolver:  Solving for Ux, Initial residual = 0.00228589473693, Final residual = 0.000226535139445, No Iterations 4
smoothSolver:  Solving for Uy, Initial residual = 0.0136034465034, Final residual = 0.00135515124981, No Iterations 4
smoothSolver:  Solving for Uz, Initial residual = 0.0148312386083, Final residual = 0.000957972687517, No Iterations 5
GAMG:  Solving for p, Initial residual = 0.10634607826, Final residual = 0.00623629719758, No Iterations 3
time step continuity errors : sum local = 1.56932521586e-05, global = 6.82248520338e-07, cumulative = -0.000127209842194
smoothSolver:  Solving for epsilon, Initial residual = 0.00205061713664, Final residual = 0.000156078261022, No Iterations 4
smoothSolver:  Solving for k, Initial residual = 0.00638562770799, Final residual = 0.000619693493735, No Iterations 4
ExecutionTime = 15 s  ClockTime = 16 s

Time = 30

smoothSolver:  Solving for Ux, Initial residual = 0.00294131304974, Final residual = 0.000181544882777, No Iterations 5
smoothSolver:  Solving for Uy, Initial residual = 0.0119207618393, Final residual = 0.0011490895313, No Iterations 4
smoothSolver:  Solving for Uz, Initial residual = 0.0117782300252, Final residual = 0.000767592530279, No Iterations 5
GAMG:  Solving for p, Initial residual = 0.115867321577, Final residual = 0.0069011270931, No Iterations 3
time step continuity errors : sum local = 1.45644114434e-05, global = -2.54689012559e-07, cumulative = -0.000127464531207
smoothSolver:  Solving for epsilon, Initial residual = 0.00188947284972, Final residual = 0.000143596619085, No Iterations 4
smoothSolver:  Solving for k, Initial residual = 0.00626902251575, Final residual = 0.000618281951344, No Iterations 4
ExecutionTime = 15.51 s  ClockTime = 17 s

Time = 31

smoothSolver:  Solving for Ux, Initial residual = 0.00271729687848, Final residual = 0.000172739434451, No Iterations 5
smoothSolver:  Solving for Uy, Initial residual = 0.0115395512724, Final residual = 0.00112777200441, No Iterations 4
smoothSolver:  Solving for Uz, Initial residual = 0.00849115126163, Final residual = 0.000498602921662, No Iterations 5
GAMG:  Solving for p, Initial residual = 0.107071573582, Final residual = 0.00552983249863, No Iterations 3
time step continuity errors : sum local = 1.15004564396e-05, global = 5.62454761235e-07, cumulative = -0.000126902076445
smoothSolver:  Solving for epsilon, Initial residual = 0.00174624410984, Final residual = 0.000132694994501, No Iterations 4
smoothSolver:  Solving for k, Initial residual = 0.0061968659952, Final residual = 0.000349904344255, No Iterations 5
ExecutionTime = 16.02 s  ClockTime = 17 s

Time = 32

smoothSolver:  Solving for Ux, Initial residual = 0.00206403289005, Final residual = 0.000119083061269, No Iterations 5
smoothSolver:  Solving for Uy, Initial residual = 0.0114446528884, Final residual = 0.00112698376688, No Iterations 4
smoothSolver:  Solving for Uz, Initial residual = 0.00930749363781, Final residual = 0.000613407351859, No Iterations 5
GAMG:  Solving for p, Initial residual = 0.0953918425744, Final residual = 0.00490239067576, No Iterations 3
time step continuity errors : sum local = 1.01864194281e-05, global = -2.04816884857e-07, cumulative = -0.00012710689333
smoothSolver:  Solving for epsilon, Initial residual = 0.00162872746975, Final residual = 0.000123685381271, No Iterations 4
smoothSolver:  Solving for k, Initial residual = 0.00612605986937, Final residual = 0.000351807170605, No Iterations 5
ExecutionTime = 16.54 s  ClockTime = 18 s

Time = 33

smoothSolver:  Solving for Ux, Initial residual = 0.0021737013865, Final residual = 0.000124019554248, No Iterations 5
smoothSolver:  Solving for Uy, Initial residual = 0.0108078804916, Final residual = 0.001056924626, No Iterations 4
smoothSolver:  Solving for Uz, Initial residual = 0.00970318135854, Final residual = 0.000656578112535, No Iterations 5
GAMG:  Solving for p, Initial residual = 0.0654554077719, Final residual = 0.00357663695283, No Iterations 3
time step continuity errors : sum local = 9.80211292904e-06, global = 1.53305590932e-07, cumulative = -0.000126953587739
smoothSolver:  Solving for epsilon, Initial residual = 0.0015272853783, Final residual = 0.000115696558495, No Iterations 4
smoothSolver:  Solving for k, Initial residual = 0.00606505696314, Final residual = 0.000352206802661, No Iterations 5
ExecutionTime = 17.03 s  ClockTime = 18 s

Time = 34

smoothSolver:  Solving for Ux, Initial residual = 0.00189346863955, Final residual = 0.000109623226074, No Iterations 5
smoothSolver:  Solving for Uy, Initial residual = 0.0105164770504, Final residual = 0.00103859527176, No Iterations 4
smoothSolver:  Solving for Uz, Initial residual = 0.00955762278756, Final residual = 0.0006054262207, No Iterations 5
GAMG:  Solving for p, Initial residual = 0.0578396555245, Final residual = 0.00307638882924, No Iterations 3
time step continuity errors : sum local = 8.41455290504e-06, global = 1.83978778252e-07, cumulative = -0.000126769608961
smoothSolver:  Solving for epsilon, Initial residual = 0.00143278397047, Final residual = 0.00010813661572, No Iterations 4
smoothSolver:  Solving for k, Initial residual = 0.00603982046659, Final residual = 0.000352703729327, No Iterations 5
ExecutionTime = 17.58 s  ClockTime = 19 s

Time = 35

smoothSolver:  Solving for Ux, Initial residual = 0.00164150369165, Final residual = 0.000161545976333, No Iterations 4
smoothSolver:  Solving for Uy, Initial residual = 0.0102749713173, Final residual = 0.00102052871642, No Iterations 4
smoothSolver:  Solving for Uz, Initial residual = 0.00866457224862, Final residual = 0.000526667113945, No Iterations 5
GAMG:  Solving for p, Initial residual = 0.0622577948997, Final residual = 0.00602141340666, No Iterations 2
time step continuity errors : sum local = 1.3718436218e-05, global = 7.23278087683e-07, cumulative = -0.000126046330873
smoothSolver:  Solving for epsilon, Initial residual = 0.00133874459896, Final residual = 0.000100816345353, No Iterations 4
smoothSolver:  Solving for k, Initial residual = 0.00606264930162, Final residual = 0.000354603573198, No Iterations 5
ExecutionTime = 18.07 s  ClockTime = 19 s

Time = 36

smoothSolver:  Solving for Ux, Initial residual = 0.00186769435735, Final residual = 0.000109164167323, No Iterations 5
smoothSolver:  Solving for Uy, Initial residual = 0.0096918788781, Final residual = 0.000951058225516, No Iterations 4
smoothSolver:  Solving for Uz, Initial residual = 0.00727330294012, Final residual = 0.000439360795194, No Iterations 5
GAMG:  Solving for p, Initial residual = 0.071157527812, Final residual = 0.00354510546612, No Iterations 3
time step continuity errors : sum local = 6.62193045942e-06, global = 1.4161264417e-07, cumulative = -0.000125904718229
smoothSolver:  Solving for epsilon, Initial residual = 0.00125027887749, Final residual = 9.40845865021e-05, No Iterations 4
smoothSolver:  Solving for k, Initial residual = 0.00612588766722, Final residual = 0.000358273582297, No Iterations 5
ExecutionTime = 18.58 s  ClockTime = 20 s

Time = 37

smoothSolver:  Solving for Ux, Initial residual = 0.00189342113669, Final residual = 0.000114696662457, No Iterations 5
smoothSolver:  Solving for Uy, Initial residual = 0.00908148761499, Final residual = 0.000874876842828, No Iterations 4
smoothSolver:  Solving for Uz, Initial residual = 0.00594688830566, Final residual = 0.000348134758669, No Iterations 5
GAMG:  Solving for p, Initial residual = 0.0662574030229, Final residual = 0.0034732893899, No Iterations 3
time step continuity errors : sum local = 6.19831540518e-06, global = -2.63304918142e-07, cumulative = -0.000126168023147
smoothSolver:  Solving for epsilon, Initial residual = 0.00116951313625, Final residual = 8.80484529616e-05, No Iterations 4
smoothSolver:  Solving for k, Initial residual = 0.00620421584078, Final residual = 0.00036235340022, No Iterations 5
ExecutionTime = 19.09 s  ClockTime = 21 s

Time = 38

smoothSolver:  Solving for Ux, Initial residual = 0.00172787940286, Final residual = 0.000103870923686, No Iterations 5
smoothSolver:  Solving for Uy, Initial residual = 0.00900088129644, Final residual = 0.000878491643469, No Iterations 4
smoothSolver:  Solving for Uz, Initial residual = 0.00646414244012, Final residual = 0.000415864061131, No Iterations 5
GAMG:  Solving for p, Initial residual = 0.0576572171568, Final residual = 0.00537248246079, No Iterations 2
time step continuity errors : sum local = 1.0547237502e-05, global = -4.60994401151e-07, cumulative = -0.000126629017549
smoothSolver:  Solving for epsilon, Initial residual = 0.00109850868229, Final residual = 8.26879486751e-05, No Iterations 4
smoothSolver:  Solving for k, Initial residual = 0.00628335821211, Final residual = 0.000366077430613, No Iterations 5
ExecutionTime = 19.58 s  ClockTime = 21 s

Time = 39

smoothSolver:  Solving for Ux, Initial residual = 0.00158508547268, Final residual = 9.22613131708e-05, No Iterations 5
smoothSolver:  Solving for Uy, Initial residual = 0.00875919777746, Final residual = 0.000859669624279, No Iterations 4
smoothSolver:  Solving for Uz, Initial residual = 0.00700580821524, Final residual = 0.000474073376514, No Iterations 5
GAMG:  Solving for p, Initial residual = 0.0501997888904, Final residual = 0.00241076877189, No Iterations 3
time step continuity errors : sum local = 5.2197729389e-06, global = -1.18253860187e-07, cumulative = -0.000126747271409
smoothSolver:  Solving for epsilon, Initial residual = 0.00103625330643, Final residual = 7.79020122541e-05, No Iterations 4
smoothSolver:  Solving for k, Initial residual = 0.00636121640557, Final residual = 0.000369202641197, No Iterations 5
ExecutionTime = 20.09 s  ClockTime = 22 s

Time = 40

smoothSolver:  Solving for Ux, Initial residual = 0.00148353540214, Final residual = 8.5300162332e-05, No Iterations 5
smoothSolver:  Solving for Uy, Initial residual = 0.00879196782399, Final residual = 0.000871413512957, No Iterations 4
smoothSolver:  Solving for Uz, Initial residual = 0.00729830149099, Final residual = 0.000488458760318, No Iterations 5
GAMG:  Solving for p, Initial residual = 0.0429505945768, Final residual = 0.00422298599998, No Iterations 2
time step continuity errors : sum local = 9.30822119991e-06, global = 4.413802252e-07, cumulative = -0.000126305891184
smoothSolver:  Solving for epsilon, Initial residual = 0.000981373070675, Final residual = 7.36588168542e-05, No Iterations 4
smoothSolver:  Solving for k, Initial residual = 0.00644302079405, Final residual = 0.000372139876063, No Iterations 5
ExecutionTime = 20.59 s  ClockTime = 22 s

Time = 41

smoothSolver:  Solving for Ux, Initial residual = 0.00148035758003, Final residual = 8.53941914274e-05, No Iterations 5
smoothSolver:  Solving for Uy, Initial residual = 0.00886738059925, Final residual = 0.000498434506335, No Iterations 5
smoothSolver:  Solving for Uz, Initial residual = 0.0067631632189, Final residual = 0.000439126059107, No Iterations 5
GAMG:  Solving for p, Initial residual = 0.0437508970879, Final residual = 0.00242683070613, No Iterations 3
time step continuity errors : sum local = 5.07997577175e-06, global = 4.6611558018e-07, cumulative = -0.000125839775603
smoothSolver:  Solving for epsilon, Initial residual = 0.00093189445477, Final residual = 6.983410736e-05, No Iterations 4
smoothSolver:  Solving for k, Initial residual = 0.00653215833001, Final residual = 0.000375139289876, No Iterations 5
ExecutionTime = 21.1 s  ClockTime = 23 s

Time = 42

smoothSolver:  Solving for Ux, Initial residual = 0.00155791186503, Final residual = 9.13042634733e-05, No Iterations 5
smoothSolver:  Solving for Uy, Initial residual = 0.00833753920813, Final residual = 0.000825314180255, No Iterations 4
smoothSolver:  Solving for Uz, Initial residual = 0.00564074388273, Final residual = 0.000358188627756, No Iterations 5
GAMG:  Solving for p, Initial residual = 0.0446904096439, Final residual = 0.0023284803124, No Iterations 3
time step continuity errors : sum local = 4.51750904122e-06, global = 1.93502872441e-07, cumulative = -0.000125646272731
smoothSolver:  Solving for epsilon, Initial residual = 0.000887917948701, Final residual = 6.6440253233e-05, No Iterations 4
smoothSolver:  Solving for k, Initial residual = 0.00662898670493, Final residual = 0.000378449611113, No Iterations 5
ExecutionTime = 21.65 s  ClockTime = 23 s

Time = 43

smoothSolver:  Solving for Ux, Initial residual = 0.00159537570713, Final residual = 9.54574836766e-05, No Iterations 5
smoothSolver:  Solving for Uy, Initial residual = 0.00784520974572, Final residual = 0.000762589479891, No Iterations 4
smoothSolver:  Solving for Uz, Initial residual = 0.00499788383321, Final residual = 0.00031898078643, No Iterations 5
GAMG:  Solving for p, Initial residual = 0.0428959060966, Final residual = 0.00395120739472, No Iterations 2
time step continuity errors : sum local = 7.35661887977e-06, global = -2.25686988403e-07, cumulative = -0.000125871959719
smoothSolver:  Solving for epsilon, Initial residual = 0.00085111906766, Final residual = 6.35861566154e-05, No Iterations 4
smoothSolver:  Solving for k, Initial residual = 0.00672782646368, Final residual = 0.000381775761194, No Iterations 5
ExecutionTime = 22.12 s  ClockTime = 24 s

Time = 44

smoothSolver:  Solving for Ux, Initial residual = 0.00155944597964, Final residual = 9.43146922735e-05, No Iterations 5
smoothSolver:  Solving for Uy, Initial residual = 0.00768681331581, Final residual = 0.000747651720114, No Iterations 4
smoothSolver:  Solving for Uz, Initial residual = 0.00510170847303, Final residual = 0.000338857664456, No Iterations 5
GAMG:  Solving for p, Initial residual = 0.0417509419907, Final residual = 0.00417072489872, No Iterations 2
time step continuity errors : sum local = 7.84517187229e-06, global = 6.49057235404e-09, cumulative = -0.000125865469147
smoothSolver:  Solving for epsilon, Initial residual = 0.000822422641705, Final residual = 6.13284196594e-05, No Iterations 4
smoothSolver:  Solving for k, Initial residual = 0.00682217477809, Final residual = 0.000384863293335, No Iterations 5
ExecutionTime = 22.6 s  ClockTime = 24 s

Time = 45

smoothSolver:  Solving for Ux, Initial residual = 0.00148652624552, Final residual = 8.96532472972e-05, No Iterations 5
smoothSolver:  Solving for Uy, Initial residual = 0.00763360652009, Final residual = 0.0007492378226, No Iterations 4
smoothSolver:  Solving for Uz, Initial residual = 0.00558020552442, Final residual = 0.000387437367711, No Iterations 5
GAMG:  Solving for p, Initial residual = 0.0397145271046, Final residual = 0.00226351487833, No Iterations 3
time step continuity errors : sum local = 4.3920597137e-06, global = -2.5688938488e-07, cumulative = -0.000126122358532
smoothSolver:  Solving for epsilon, Initial residual = 0.000800004946245, Final residual = 5.95261976954e-05, No Iterations 4
smoothSolver:  Solving for k, Initial residual = 0.00690714738967, Final residual = 0.000387468343603, No Iterations 5
ExecutionTime = 23.11 s  ClockTime = 25 s

Time = 46

smoothSolver:  Solving for Ux, Initial residual = 0.0014240348516, Final residual = 8.5156336354e-05, No Iterations 5
smoothSolver:  Solving for Uy, Initial residual = 0.00766513442977, Final residual = 0.000761992934188, No Iterations 4
smoothSolver:  Solving for Uz, Initial residual = 0.00602165345083, Final residual = 0.000426399843799, No Iterations 5
GAMG:  Solving for p, Initial residual = 0.03625981061, Final residual = 0.00337060496242, No Iterations 2
time step continuity errors : sum local = 6.62741783417e-06, global = 2.70124423327e-07, cumulative = -0.000125852234109
smoothSolver:  Solving for epsilon, Initial residual = 0.000783128297886, Final residual = 5.81268383605e-05, No Iterations 4
smoothSolver:  Solving for k, Initial residual = 0.00698432857037, Final residual = 0.00069608910284, No Iterations 4
ExecutionTime = 23.58 s  ClockTime = 25 s

Time = 47

smoothSolver:  Solving for Ux, Initial residual = 0.00140033193447, Final residual = 8.32706568033e-05, No Iterations 5
smoothSolver:  Solving for Uy, Initial residual = 0.00760912423718, Final residual = 0.000426815283467, No Iterations 5
smoothSolver:  Solving for Uz, Initial residual = 0.00584583366812, Final residual = 0.000411729731022, No Iterations 5
GAMG:  Solving for p, Initial residual = 0.0351369106849, Final residual = 0.00346908845913, No Iterations 2
time step continuity errors : sum local = 6.73140730865e-06, global = 7.23595990939e-08, cumulative = -0.000125779874509
smoothSolver:  Solving for epsilon, Initial residual = 0.000765938370932, Final residual = 5.66964391552e-05, No Iterations 4
smoothSolver:  Solving for k, Initial residual = 0.00703864933972, Final residual = 0.000697942511261, No Iterations 4
ExecutionTime = 24.06 s  ClockTime = 26 s

Time = 48

smoothSolver:  Solving for Ux, Initial residual = 0.00141924925576, Final residual = 8.45447222082e-05, No Iterations 5
smoothSolver:  Solving for Uy, Initial residual = 0.00737141385776, Final residual = 0.000414489736203, No Iterations 5
smoothSolver:  Solving for Uz, Initial residual = 0.00533026428901, Final residual = 0.000372316244409, No Iterations 5
GAMG:  Solving for p, Initial residual = 0.0352056925743, Final residual = 0.00208246753871, No Iterations 3
time step continuity errors : sum local = 3.8997069361e-06, global = 1.58590161306e-07, cumulative = -0.000125621284348
smoothSolver:  Solving for epsilon, Initial residual = 0.000754936443592, Final residual = 5.56224932725e-05, No Iterations 4
smoothSolver:  Solving for k, Initial residual = 0.00709178467753, Final residual = 0.000700212507969, No Iterations 4
ExecutionTime = 24.54 s  ClockTime = 26 s

Time = 49

smoothSolver:  Solving for Ux, Initial residual = 0.00143638959688, Final residual = 8.60858958764e-05, No Iterations 5
smoothSolver:  Solving for Uy, Initial residual = 0.00696665056766, Final residual = 0.000694024980031, No Iterations 4
smoothSolver:  Solving for Uz, Initial residual = 0.00482038188523, Final residual = 0.000336690741135, No Iterations 5
GAMG:  Solving for p, Initial residual = 0.0341222308605, Final residual = 0.00332090664519, No Iterations 2
time step continuity errors : sum local = 6.03406544261e-06, global = 2.32449056819e-07, cumulative = -0.000125388835291
smoothSolver:  Solving for epsilon, Initial residual = 0.000748465270248, Final residual = 5.48671655613e-05, No Iterations 4
smoothSolver:  Solving for k, Initial residual = 0.00714178619277, Final residual = 0.000702499144305, No Iterations 4
ExecutionTime = 25.02 s  ClockTime = 27 s

Time = 50

smoothSolver:  Solving for Ux, Initial residual = 0.00141946548578, Final residual = 8.55283564349e-05, No Iterations 5
smoothSolver:  Solving for Uy, Initial residual = 0.00675992657464, Final residual = 0.00067342216668, No Iterations 4
smoothSolver:  Solving for Uz, Initial residual = 0.00466658304264, Final residual = 0.000330876015974, No Iterations 5
GAMG:  Solving for p, Initial residual = 0.0335082243702, Final residual = 0.00203761801082, No Iterations 3
time step continuity errors : sum local = 3.67897263244e-06, global = -7.11910400228e-09, cumulative = -0.000125395954395
smoothSolver:  Solving for epsilon, Initial residual = 0.000746149657149, Final residual = 5.44810279383e-05, No Iterations 4
smoothSolver:  Solving for k, Initial residual = 0.00718646014247, Final residual = 0.000704521578856, No Iterations 4
ExecutionTime = 25.5 s  ClockTime = 27 s

Time = 51

smoothSolver:  Solving for Ux, Initial residual = 0.00138324690894, Final residual = 8.34750406133e-05, No Iterations 5
smoothSolver:  Solving for Uy, Initial residual = 0.0066862397572, Final residual = 0.000374934970372, No Iterations 5
smoothSolver:  Solving for Uz, Initial residual = 0.00489572312829, Final residual = 0.00035576845235, No Iterations 5
GAMG:  Solving for p, Initial residual = 0.0323325002415, Final residual = 0.0019330510381, No Iterations 3
time step continuity errors : sum local = 3.49977069268e-06, global = -6.21829954335e-08, cumulative = -0.000125458137391
smoothSolver:  Solving for epsilon, Initial residual = 0.000747120024988, Final residual = 5.44233152336e-05, No Iterations 4
smoothSolver:  Solving for k, Initial residual = 0.00722557715922, Final residual = 0.000706148450623, No Iterations 4
ExecutionTime = 26.01 s  ClockTime = 28 s

Time = 52

smoothSolver:  Solving for Ux, Initial residual = 0.00134493816181, Final residual = 8.1004290472e-05, No Iterations 5
smoothSolver:  Solving for Uy, Initial residual = 0.00657877438039, Final residual = 0.000371842336877, No Iterations 5
smoothSolver:  Solving for Uz, Initial residual = 0.00514601261219, Final residual = 0.000379454870086, No Iterations 5
GAMG:  Solving for p, Initial residual = 0.0309805212953, Final residual = 0.0029142095406, No Iterations 2
time step continuity errors : sum local = 5.28681664265e-06, global = 2.38750584263e-07, cumulative = -0.000125219386806
smoothSolver:  Solving for epsilon, Initial residual = 0.000750834890343, Final residual = 5.45503058614e-05, No Iterations 4
smoothSolver:  Solving for k, Initial residual = 0.00725892262927, Final residual = 0.000707320621043, No Iterations 4
ExecutionTime = 26.49 s  ClockTime = 28 s

Time = 53

smoothSolver:  Solving for Ux, Initial residual = 0.0013164823851, Final residual = 7.90504412462e-05, No Iterations 5
smoothSolver:  Solving for Uy, Initial residual = 0.00643474650632, Final residual = 0.000366052665588, No Iterations 5
smoothSolver:  Solving for Uz, Initial residual = 0.00512132487588, Final residual = 0.000378754073346, No Iterations 5
GAMG:  Solving for p, Initial residual = 0.0305227755427, Final residual = 0.00299651477665, No Iterations 2
time step continuity errors : sum local = 5.41259010366e-06, global = 2.09470497342e-07, cumulative = -0.000125009916309
smoothSolver:  Solving for epsilon, Initial residual = 0.000755944737099, Final residual = 5.47868329461e-05, No Iterations 4
smoothSolver:  Solving for k, Initial residual = 0.00728641017553, Final residual = 0.000707966788801, No Iterations 4
ExecutionTime = 26.99 s  ClockTime = 29 s

Time = 54

smoothSolver:  Solving for Ux, Initial residual = 0.00130750939097, Final residual = 7.84061338132e-05, No Iterations 5
smoothSolver:  Solving for Uy, Initial residual = 0.00631294163251, Final residual = 0.000361997687943, No Iterations 5
smoothSolver:  Solving for Uz, Initial residual = 0.00497171168516, Final residual = 0.000367870374466, No Iterations 5
GAMG:  Solving for p, Initial residual = 0.0303707466654, Final residual = 0.00174788377265, No Iterations 3
time step continuity errors : sum local = 3.10642455453e-06, global = 1.09949496269e-07, cumulative = -0.000124899966813
smoothSolver:  Solving for epsilon, Initial residual = 0.000762256560844, Final residual = 5.51244862196e-05, No Iterations 4
smoothSolver:  Solving for k, Initial residual = 0.00730925676498, Final residual = 0.000708197756962, No Iterations 4
ExecutionTime = 27.46 s  ClockTime = 30 s

Time = 55

smoothSolver:  Solving for Ux, Initial residual = 0.00130418051453, Final residual = 7.82457574695e-05, No Iterations 5
smoothSolver:  Solving for Uy, Initial residual = 0.00612692132765, Final residual = 0.000352409368193, No Iterations 5
smoothSolver:  Solving for Uz, Initial residual = 0.00478872750353, Final residual = 0.000355473596719, No Iterations 5
GAMG:  Solving for p, Initial residual = 0.0296395336977, Final residual = 0.00293219003136, No Iterations 2
time step continuity errors : sum local = 5.11243074919e-06, global = 1.1911824688e-07, cumulative = -0.000124780848566
smoothSolver:  Solving for epsilon, Initial residual = 0.000768810136253, Final residual = 5.55189428094e-05, No Iterations 4
smoothSolver:  Solving for k, Initial residual = 0.00732708210399, Final residual = 0.000707974887675, No Iterations 4
ExecutionTime = 28.02 s  ClockTime = 30 s

Time = 56

smoothSolver:  Solving for Ux, Initial residual = 0.00128946820871, Final residual = 7.74882538348e-05, No Iterations 5
smoothSolver:  Solving for Uy, Initial residual = 0.00595912309446, Final residual = 0.000343804460603, No Iterations 5
smoothSolver:  Solving for Uz, Initial residual = 0.00464714725083, Final residual = 0.000346942674729, No Iterations 5
GAMG:  Solving for p, Initial residual = 0.0293687028573, Final residual = 0.00172031732049, No Iterations 3
time step continuity errors : sum local = 2.96827998736e-06, global = 9.0897561826e-08, cumulative = -0.000124689951004
smoothSolver:  Solving for epsilon, Initial residual = 0.000775613013298, Final residual = 5.59229486511e-05, No Iterations 4
smoothSolver:  Solving for k, Initial residual = 0.00733901317691, Final residual = 0.000707251837998, No Iterations 4
ExecutionTime = 28.57 s  ClockTime = 31 s

Time = 57

smoothSolver:  Solving for Ux, Initial residual = 0.00126545269106, Final residual = 7.61178428197e-05, No Iterations 5
smoothSolver:  Solving for Uy, Initial residual = 0.00580702590167, Final residual = 0.000335867096863, No Iterations 5
smoothSolver:  Solving for Uz, Initial residual = 0.00465681586262, Final residual = 0.000350747457672, No Iterations 5
GAMG:  Solving for p, Initial residual = 0.0285506476932, Final residual = 0.00282684499021, No Iterations 2
time step continuity errors : sum local = 4.85025056264e-06, global = 2.0228265927e-07, cumulative = -0.000124487668345
smoothSolver:  Solving for epsilon, Initial residual = 0.000780665369973, Final residual = 5.61836573408e-05, No Iterations 4
smoothSolver:  Solving for k, Initial residual = 0.0073449858784, Final residual = 0.000706000098689, No Iterations 4
ExecutionTime = 29.07 s  ClockTime = 32 s

Time = 58

smoothSolver:  Solving for Ux, Initial residual = 0.00123528962137, Final residual = 7.42735675738e-05, No Iterations 5
smoothSolver:  Solving for Uy, Initial residual = 0.00569658106403, Final residual = 0.000330933656994, No Iterations 5
smoothSolver:  Solving for Uz, Initial residual = 0.00465782926225, Final residual = 0.000352495141831, No Iterations 5
GAMG:  Solving for p, Initial residual = 0.0280954621462, Final residual = 0.00169129244596, No Iterations 3
time step continuity errors : sum local = 2.8966310361e-06, global = 6.77169365265e-08, cumulative = -0.000124419951408
smoothSolver:  Solving for epsilon, Initial residual = 0.000783783733954, Final residual = 5.62724367812e-05, No Iterations 4
smoothSolver:  Solving for k, Initial residual = 0.00734522916955, Final residual = 0.000704214718216, No Iterations 4
ExecutionTime = 29.66 s  ClockTime = 32 s

Time = 59

smoothSolver:  Solving for Ux, Initial residual = 0.00121346033457, Final residual = 7.28679483723e-05, No Iterations 5
smoothSolver:  Solving for Uy, Initial residual = 0.00561132948839, Final residual = 0.000328481872808, No Iterations 5
smoothSolver:  Solving for Uz, Initial residual = 0.00474651131404, Final residual = 0.000360859057492, No Iterations 5
GAMG:  Solving for p, Initial residual = 0.0274223691304, Final residual = 0.00273636842499, No Iterations 2
time step continuity errors : sum local = 4.65513980719e-06, global = 1.99674244965e-07, cumulative = -0.000124220277163
smoothSolver:  Solving for epsilon, Initial residual = 0.000784135686751, Final residual = 5.61631121462e-05, No Iterations 4
smoothSolver:  Solving for k, Initial residual = 0.00734105327859, Final residual = 0.000702057256237, No Iterations 4
ExecutionTime = 30.22 s  ClockTime = 33 s

Time = 60

smoothSolver:  Solving for Ux, Initial residual = 0.00119458598804, Final residual = 7.1651198463e-05, No Iterations 5
smoothSolver:  Solving for Uy, Initial residual = 0.00551845496091, Final residual = 0.000325340620175, No Iterations 5
smoothSolver:  Solving for Uz, Initial residual = 0.00470195764448, Final residual = 0.000357745809178, No Iterations 5
GAMG:  Solving for p, Initial residual = 0.027226402695, Final residual = 0.0015609759228, No Iterations 3
time step continuity errors : sum local = 2.63823727783e-06, global = 7.40020275046e-08, cumulative = -0.000124146275136
smoothSolver:  Solving for epsilon, Initial residual = 0.000782479047456, Final residual = 5.59056928776e-05, No Iterations 4
smoothSolver:  Solving for k, Initial residual = 0.0073322907746, Final residual = 0.000699504576185, No Iterations 4
ExecutionTime = 30.73 s  ClockTime = 33 s

Time = 61

smoothSolver:  Solving for Ux, Initial residual = 0.00117984622971, Final residual = 7.07249883418e-05, No Iterations 5
smoothSolver:  Solving for Uy, Initial residual = 0.00538392890757, Final residual = 0.000318724265926, No Iterations 5
smoothSolver:  Solving for Uz, Initial residual = 0.00464621756354, Final residual = 0.00035410254361, No Iterations 5
GAMG:  Solving for p, Initial residual = 0.0265682257432, Final residual = 0.00261111082552, No Iterations 2
time step continuity errors : sum local = 4.38082961738e-06, global = 1.79466100703e-07, cumulative = -0.000123966809035
smoothSolver:  Solving for epsilon, Initial residual = 0.000778309806188, Final residual = 5.54798117403e-05, No Iterations 4
smoothSolver:  Solving for k, Initial residual = 0.00731964291849, Final residual = 0.000696609089327, No Iterations 4
ExecutionTime = 31.22 s  ClockTime = 34 s

Time = 62

smoothSolver:  Solving for Ux, Initial residual = 0.0011597216046, Final residual = 6.95300680792e-05, No Iterations 5
smoothSolver:  Solving for Uy, Initial residual = 0.00525244045978, Final residual = 0.000312141392392, No Iterations 5
smoothSolver:  Solving for Uz, Initial residual = 0.00452927963484, Final residual = 0.000345394543163, No Iterations 5
GAMG:  Solving for p, Initial residual = 0.0262175287392, Final residual = 0.00150272475093, No Iterations 3
time step continuity errors : sum local = 2.51538112946e-06, global = 6.48936578656e-08, cumulative = -0.000123901915377
smoothSolver:  Solving for epsilon, Initial residual = 0.000772174333454, Final residual = 5.4927400807e-05, No Iterations 4
smoothSolver:  Solving for k, Initial residual = 0.00730233895004, Final residual = 0.000693348824778, No Iterations 4
ExecutionTime = 31.73 s  ClockTime = 34 s

Time = 63

smoothSolver:  Solving for Ux, Initial residual = 0.00113927042844, Final residual = 6.83187255833e-05, No Iterations 5
smoothSolver:  Solving for Uy, Initial residual = 0.0051261672033, Final residual = 0.000305677190525, No Iterations 5
smoothSolver:  Solving for Uz, Initial residual = 0.00447489444362, Final residual = 0.000341981132715, No Iterations 5
GAMG:  Solving for p, Initial residual = 0.025242805103, Final residual = 0.00249910558744, No Iterations 2
time step continuity errors : sum local = 4.21173201358e-06, global = 2.08582760176e-07, cumulative = -0.000123693332617
smoothSolver:  Solving for epsilon, Initial residual = 0.000763415253413, Final residual = 5.42158523429e-05, No Iterations 4
smoothSolver:  Solving for k, Initial residual = 0.00728091903291, Final residual = 0.000689817917449, No Iterations 4
ExecutionTime = 32.25 s  ClockTime = 35 s

Time = 64

smoothSolver:  Solving for Ux, Initial residual = 0.00111401742872, Final residual = 6.67874702327e-05, No Iterations 5
smoothSolver:  Solving for Uy, Initial residual = 0.00502602994661, Final residual = 0.000301200358102, No Iterations 5
smoothSolver:  Solving for Uz, Initial residual = 0.00441426149396, Final residual = 0.000337445483273, No Iterations 5
GAMG:  Solving for p, Initial residual = 0.0246762009792, Final residual = 0.00147322757486, No Iterations 3
time step continuity errors : sum local = 2.49971836299e-06, global = 5.64866424674e-08, cumulative = -0.000123636845975
smoothSolver:  Solving for epsilon, Initial residual = 0.000752871497094, Final residual = 5.33903536667e-05, No Iterations 4
smoothSolver:  Solving for k, Initial residual = 0.00725494350771, Final residual = 0.000685964693001, No Iterations 4
ExecutionTime = 32.78 s  ClockTime = 36 s

Time = 65

smoothSolver:  Solving for Ux, Initial residual = 0.00109412751443, Final residual = 6.55580060803e-05, No Iterations 5
smoothSolver:  Solving for Uy, Initial residual = 0.00494486988104, Final residual = 0.000298360698738, No Iterations 5
smoothSolver:  Solving for Uz, Initial residual = 0.00443773203094, Final residual = 0.000340033399099, No Iterations 5
GAMG:  Solving for p, Initial residual = 0.023657894002, Final residual = 0.00136463165745, No Iterations 3
time step continuity errors : sum local = 2.33986314666e-06, global = 4.9308222386e-08, cumulative = -0.000123587537752
smoothSolver:  Solving for epsilon, Initial residual = 0.000740389673183, Final residual = 5.24368784586e-05, No Iterations 4
smoothSolver:  Solving for k, Initial residual = 0.00722579200224, Final residual = 0.000681887018854, No Iterations 4
ExecutionTime = 33.29 s  ClockTime = 36 s

Time = 66

smoothSolver:  Solving for Ux, Initial residual = 0.00107450997023, Final residual = 6.4328999707e-05, No Iterations 5
smoothSolver:  Solving for Uy, Initial residual = 0.00485314376322, Final residual = 0.00029472275069, No Iterations 5
smoothSolver:  Solving for Uz, Initial residual = 0.00443391782348, Final residual = 0.000340262415036, No Iterations 5
GAMG:  Solving for p, Initial residual = 0.0226879324079, Final residual = 0.00222046583603, No Iterations 2
time step continuity errors : sum local = 3.84953069199e-06, global = 1.89464050831e-07, cumulative = -0.000123398073701
smoothSolver:  Solving for epsilon, Initial residual = 0.000726127443206, Final residual = 5.13689081938e-05, No Iterations 4
smoothSolver:  Solving for k, Initial residual = 0.00719295000859, Final residual = 0.000677581324619, No Iterations 4
ExecutionTime = 33.79 s  ClockTime = 37 s

Time = 67

smoothSolver:  Solving for Ux, Initial residual = 0.00105173686955, Final residual = 6.29071932485e-05, No Iterations 5
smoothSolver:  Solving for Uy, Initial residual = 0.00474815554132, Final residual = 0.000289992856458, No Iterations 5
smoothSolver:  Solving for Uz, Initial residual = 0.00434606129284, Final residual = 0.000333295679197, No Iterations 5
GAMG:  Solving for p, Initial residual = 0.0221873188943, Final residual = 0.00127029617534, No Iterations 3
time step continuity errors : sum local = 2.22166770228e-06, global = 4.5056160193e-08, cumulative = -0.000123353017541
smoothSolver:  Solving for epsilon, Initial residual = 0.000710599628249, Final residual = 5.0215672653e-05, No Iterations 4
smoothSolver:  Solving for k, Initial residual = 0.0071562551261, Final residual = 0.000672993146981, No Iterations 4
ExecutionTime = 34.28 s  ClockTime = 37 s

Time = 68

smoothSolver:  Solving for Ux, Initial residual = 0.00103285838447, Final residual = 6.1729195785e-05, No Iterations 5
smoothSolver:  Solving for Uy, Initial residual = 0.00462771621047, Final residual = 0.000283914813717, No Iterations 5
smoothSolver:  Solving for Uz, Initial residual = 0.00429009916849, Final residual = 0.000329274775099, No Iterations 5
GAMG:  Solving for p, Initial residual = 0.0212911152779, Final residual = 0.00120428196502, No Iterations 3
time step continuity errors : sum local = 2.13058475857e-06, global = 3.8804712479e-08, cumulative = -0.000123314212829
smoothSolver:  Solving for epsilon, Initial residual = 0.000693417808982, Final residual = 4.89615145853e-05, No Iterations 4
smoothSolver:  Solving for k, Initial residual = 0.0071167843451, Final residual = 0.000668170588959, No Iterations 4
ExecutionTime = 34.79 s  ClockTime = 38 s

Time = 69

smoothSolver:  Solving for Ux, Initial residual = 0.00101288746021, Final residual = 6.04978084659e-05, No Iterations 5
smoothSolver:  Solving for Uy, Initial residual = 0.00451394149078, Final residual = 0.000278081205904, No Iterations 5
smoothSolver:  Solving for Uz, Initial residual = 0.00423128384193, Final residual = 0.000324922974962, No Iterations 5
GAMG:  Solving for p, Initial residual = 0.0204245442765, Final residual = 0.00202128253793, No Iterations 2
time step continuity errors : sum local = 3.61354030954e-06, global = 1.96114695031e-07, cumulative = -0.000123118098134
smoothSolver:  Solving for epsilon, Initial residual = 0.000674834870523, Final residual = 4.76228074149e-05, No Iterations 4
smoothSolver:  Solving for k, Initial residual = 0.00707499030232, Final residual = 0.000663262777464, No Iterations 4
ExecutionTime = 35.27 s  ClockTime = 38 s

Time = 70

smoothSolver:  Solving for Ux, Initial residual = 0.000989174800775, Final residual = 5.90339488686e-05, No Iterations 5
smoothSolver:  Solving for Uy, Initial residual = 0.00441600251503, Final residual = 0.000273390792247, No Iterations 5
smoothSolver:  Solving for Uz, Initial residual = 0.00414499423073, Final residual = 0.000317984584349, No Iterations 5
GAMG:  Solving for p, Initial residual = 0.0199597889315, Final residual = 0.0011818906794, No Iterations 3
time step continuity errors : sum local = 2.12875243263e-06, global = 3.49611684505e-08, cumulative = -0.000123083136965
smoothSolver:  Solving for epsilon, Initial residual = 0.000655435370181, Final residual = 4.62300500286e-05, No Iterations 4
smoothSolver:  Solving for k, Initial residual = 0.00703094081063, Final residual = 0.000658170648418, No Iterations 4
ExecutionTime = 35.8 s  ClockTime = 39 s

Time = 71

smoothSolver:  Solving for Ux, Initial residual = 0.000970199457398, Final residual = 5.78416165884e-05, No Iterations 5
smoothSolver:  Solving for Uy, Initial residual = 0.00432787962499, Final residual = 0.000269225668818, No Iterations 5
smoothSolver:  Solving for Uz, Initial residual = 0.00412187047884, Final residual = 0.000316580512587, No Iterations 5
GAMG:  Solving for p, Initial residual = 0.0191571981281, Final residual = 0.00112193147866, No Iterations 3
time step continuity errors : sum local = 2.04159085703e-06, global = 3.0072008939e-08, cumulative = -0.000123053064956
smoothSolver:  Solving for epsilon, Initial residual = 0.000634925802285, Final residual = 4.47702106795e-05, No Iterations 4
smoothSolver:  Solving for k, Initial residual = 0.00698549254069, Final residual = 0.000652908324869, No Iterations 4
ExecutionTime = 36.3 s  ClockTime = 39 s

Time = 72

smoothSolver:  Solving for Ux, Initial residual = 0.000950763054893, Final residual = 5.66149647086e-05, No Iterations 5
smoothSolver:  Solving for Uy, Initial residual = 0.00423814401037, Final residual = 0.000264766427123, No Iterations 5
smoothSolver:  Solving for Uz, Initial residual = 0.00409355652575, Final residual = 0.000314715853235, No Iterations 5
GAMG:  Solving for p, Initial residual = 0.0183652395609, Final residual = 0.00104427705277, No Iterations 3
time step continuity errors : sum local = 1.91883399834e-06, global = 2.42855339207e-08, cumulative = -0.000123028779422
smoothSolver:  Solving for epsilon, Initial residual = 0.000613743574449, Final residual = 4.32653920221e-05, No Iterations 4
smoothSolver:  Solving for k, Initial residual = 0.0069376881432, Final residual = 0.000647418427963, No Iterations 4
ExecutionTime = 36.82 s  ClockTime = 40 s

Time = 73

smoothSolver:  Solving for Ux, Initial residual = 0.000930172254106, Final residual = 5.53108010843e-05, No Iterations 5
smoothSolver:  Solving for Uy, Initial residual = 0.00414129984721, Final residual = 0.000259693663195, No Iterations 5
smoothSolver:  Solving for Uz, Initial residual = 0.00404100595601, Final residual = 0.000310769642466, No Iterations 5
GAMG:  Solving for p, Initial residual = 0.0176768439403, Final residual = 0.00174917976232, No Iterations 2
time step continuity errors : sum local = 3.24206540369e-06, global = 1.91318181631e-07, cumulative = -0.000122837461241
smoothSolver:  Solving for epsilon, Initial residual = 0.000591847606488, Final residual = 4.17191062085e-05, No Iterations 4
smoothSolver:  Solving for k, Initial residual = 0.00688790760475, Final residual = 0.00064189464232, No Iterations 4
ExecutionTime = 37.32 s  ClockTime = 40 s

Time = 74

smoothSolver:  Solving for Ux, Initial residual = 0.000906696782115, Final residual = 5.38364503008e-05, No Iterations 5
smoothSolver:  Solving for Uy, Initial residual = 0.00404395031215, Final residual = 0.000254430178147, No Iterations 5
smoothSolver:  Solving for Uz, Initial residual = 0.00394289900445, Final residual = 0.000302755608639, No Iterations 5
GAMG:  Solving for p, Initial residual = 0.0173272581331, Final residual = 0.00102905351037, No Iterations 3
time step continuity errors : sum local = 1.91950326052e-06, global = 2.34066523599e-08, cumulative = -0.000122814054588
smoothSolver:  Solving for epsilon, Initial residual = 0.000569895040784, Final residual = 4.01601631195e-05, No Iterations 4
smoothSolver:  Solving for k, Initial residual = 0.00683685350074, Final residual = 0.000636370718994, No Iterations 4
ExecutionTime = 37.84 s  ClockTime = 41 s

Time = 75

smoothSolver:  Solving for Ux, Initial residual = 0.000888810875175, Final residual = 5.26959773797e-05, No Iterations 5
smoothSolver:  Solving for Uy, Initial residual = 0.00395163289882, Final residual = 0.000249385868587, No Iterations 5
smoothSolver:  Solving for Uz, Initial residual = 0.00389596474793, Final residual = 0.000299320603515, No Iterations 5
GAMG:  Solving for p, Initial residual = 0.0166841401863, Final residual = 0.000989233531912, No Iterations 3
time step continuity errors : sum local = 1.86246086221e-06, global = 1.91230604462e-08, cumulative = -0.000122794931528
smoothSolver:  Solving for epsilon, Initial residual = 0.000547535946919, Final residual = 3.85755618418e-05, No Iterations 4
smoothSolver:  Solving for k, Initial residual = 0.00678580145498, Final residual = 0.000630907349207, No Iterations 4
ExecutionTime = 38.36 s  ClockTime = 42 s

Time = 76

smoothSolver:  Solving for Ux, Initial residual = 0.00087065816421, Final residual = 5.1553601828e-05, No Iterations 5
smoothSolver:  Solving for Uy, Initial residual = 0.00386688370109, Final residual = 0.000244708019587, No Iterations 5
smoothSolver:  Solving for Uz, Initial residual = 0.00385319608724, Final residual = 0.000296179381654, No Iterations 5
GAMG:  Solving for p, Initial residual = 0.0160188474561, Final residual = 0.000929936854495, No Iterations 3
time step continuity errors : sum local = 1.76632488909e-06, global = 1.34993946524e-08, cumulative = -0.000122781432133
smoothSolver:  Solving for epsilon, Initial residual = 0.000525165567024, Final residual = 3.6985171487e-05, No Iterations 4
smoothSolver:  Solving for k, Initial residual = 0.00673399874079, Final residual = 0.000625436985743, No Iterations 4
ExecutionTime = 38.88 s  ClockTime = 42 s

Time = 77

smoothSolver:  Solving for Ux, Initial residual = 0.000850972208795, Final residual = 5.0324068188e-05, No Iterations 5
smoothSolver:  Solving for Uy, Initial residual = 0.00378945119132, Final residual = 0.000240403449364, No Iterations 5
smoothSolver:  Solving for Uz, Initial residual = 0.00380118435124, Final residual = 0.00029210425835, No Iterations 5
GAMG:  Solving for p, Initial residual = 0.015422966928, Final residual = 0.00087682537007, No Iterations 3
time step continuity errors : sum local = 1.67819201688e-06, global = 9.99751814597e-09, cumulative = -0.000122771434615
smoothSolver:  Solving for epsilon, Initial residual = 0.00050286599483, Final residual = 3.53972540506e-05, No Iterations 4
smoothSolver:  Solving for k, Initial residual = 0.00668136102429, Final residual = 0.000620015465586, No Iterations 4
ExecutionTime = 39.35 s  ClockTime = 43 s

Time = 78

smoothSolver:  Solving for Ux, Initial residual = 0.000830347086523, Final residual = 4.9035239118e-05, No Iterations 5
smoothSolver:  Solving for Uy, Initial residual = 0.00371600333903, Final residual = 0.000236250008558, No Iterations 5
smoothSolver:  Solving for Uz, Initial residual = 0.00373840259441, Final residual = 0.000286991462135, No Iterations 5
GAMG:  Solving for p, Initial residual = 0.0148831799861, Final residual = 0.00148715249299, No Iterations 2
time step continuity errors : sum local = 2.86542623647e-06, global = 1.90696776252e-07, cumulative = -0.000122580737839
smoothSolver:  Solving for epsilon, Initial residual = 0.000480570917842, Final residual = 3.38134690332e-05, No Iterations 4
smoothSolver:  Solving for k, Initial residual = 0.00662787968512, Final residual = 0.000614610207105, No Iterations 4
ExecutionTime = 39.85 s  ClockTime = 43 s

Time = 79

smoothSolver:  Solving for Ux, Initial residual = 0.000807700921975, Final residual = 4.7624975193e-05, No Iterations 5
smoothSolver:  Solving for Uy, Initial residual = 0.00364051969747, Final residual = 0.00023178632238, No Iterations 5
smoothSolver:  Solving for Uz, Initial residual = 0.00364738062479, Final residual = 0.000279281312623, No Iterations 5
GAMG:  Solving for p, Initial residual = 0.0146264321267, Final residual = 0.000892580023045, No Iterations 3
time step continuity errors : sum local = 1.72853230935e-06, global = 8.27498884491e-09, cumulative = -0.00012257246285
smoothSolver:  Solving for epsilon, Initial residual = 0.000458828581316, Final residual = 3.22587294502e-05, No Iterations 4
smoothSolver:  Solving for k, Initial residual = 0.00657359639889, Final residual = 0.000609174296448, No Iterations 4
ExecutionTime = 40.37 s  ClockTime = 44 s

Time = 80

smoothSolver:  Solving for Ux, Initial residual = 0.000791494844166, Final residual = 4.65857981677e-05, No Iterations 5
smoothSolver:  Solving for Uy, Initial residual = 0.00357299930059, Final residual = 0.000227908902693, No Iterations 5
smoothSolver:  Solving for Uz, Initial residual = 0.00361314448584, Final residual = 0.00027678788635, No Iterations 5
GAMG:  Solving for p, Initial residual = 0.0141052509584, Final residual = 0.00085714473607, No Iterations 3
time step continuity errors : sum local = 1.67365976e-06, global = 5.04660909477e-09, cumulative = -0.000122567416241
smoothSolver:  Solving for epsilon, Initial residual = 0.000437333798636, Final residual = 3.07209125318e-05, No Iterations 4
smoothSolver:  Solving for k, Initial residual = 0.0065190524516, Final residual = 0.000603798419807, No Iterations 4
ExecutionTime = 40.89 s  ClockTime = 44 s

Time = 81

smoothSolver:  Solving for Ux, Initial residual = 0.000775017648686, Final residual = 4.55468947728e-05, No Iterations 5
smoothSolver:  Solving for Uy, Initial residual = 0.00350475658547, Final residual = 0.00022389662004, No Iterations 5
smoothSolver:  Solving for Uz, Initial residual = 0.00357789194408, Final residual = 0.000274176194124, No Iterations 5
GAMG:  Solving for p, Initial residual = 0.0135437070068, Final residual = 0.000797944419214, No Iterations 3
time step continuity errors : sum local = 1.57024145285e-06, global = 1.59607856707e-09, cumulative = -0.000122565820162
smoothSolver:  Solving for epsilon, Initial residual = 0.000416276817949, Final residual = 2.92149424416e-05, No Iterations 4
smoothSolver:  Solving for k, Initial residual = 0.00646452588156, Final residual = 0.000598564228016, No Iterations 4
ExecutionTime = 41.43 s  ClockTime = 45 s

Time = 82

smoothSolver:  Solving for Ux, Initial residual = 0.000756616788461, Final residual = 4.43999905058e-05, No Iterations 5
smoothSolver:  Solving for Uy, Initial residual = 0.00343829423135, Final residual = 0.000219921723081, No Iterations 5
smoothSolver:  Solving for Uz, Initial residual = 0.0035229404759, Final residual = 0.00026974245516, No Iterations 5
GAMG:  Solving for p, Initial residual = 0.0130605419307, Final residual = 0.000746551767765, No Iterations 3
time step continuity errors : sum local = 1.47852824722e-06, global = 6.68707184802e-10, cumulative = -0.000122565151455
smoothSolver:  Solving for epsilon, Initial residual = 0.000395658260401, Final residual = 2.77437908775e-05, No Iterations 4
smoothSolver:  Solving for k, Initial residual = 0.00641075649182, Final residual = 0.00059344862773, No Iterations 4
ExecutionTime = 41.94 s  ClockTime = 45 s

Time = 83

smoothSolver:  Solving for Ux, Initial residual = 0.000737008022069, Final residual = 4.31847143625e-05, No Iterations 5
smoothSolver:  Solving for Uy, Initial residual = 0.00337677354754, Final residual = 0.000216189729026, No Iterations 5
smoothSolver:  Solving for Uz, Initial residual = 0.00345017474039, Final residual = 0.000263720201697, No Iterations 5
GAMG:  Solving for p, Initial residual = 0.0126172776424, Final residual = 0.00126072765133, No Iterations 2
time step continuity errors : sum local = 2.51016205859e-06, global = 1.82502957051e-07, cumulative = -0.000122382648498
smoothSolver:  Solving for epsilon, Initial residual = 0.000375350379229, Final residual = 2.63061223339e-05, No Iterations 4
smoothSolver:  Solving for k, Initial residual = 0.00635570118551, Final residual = 0.000588370686411, No Iterations 4
ExecutionTime = 42.43 s  ClockTime = 46 s

Time = 84

smoothSolver:  Solving for Ux, Initial residual = 0.000715535851699, Final residual = 4.18564029722e-05, No Iterations 5
smoothSolver:  Solving for Uy, Initial residual = 0.00331455770731, Final residual = 0.000212232923296, No Iterations 5
smoothSolver:  Solving for Uz, Initial residual = 0.00335215993325, Final residual = 0.000255446602176, No Iterations 5
GAMG:  Solving for p, Initial residual = 0.0124071878122, Final residual = 0.000768249216321, No Iterations 3
time step continuity errors : sum local = 1.53554546315e-06, global = -4.8159968372e-09, cumulative = -0.000122387464495
smoothSolver:  Solving for epsilon, Initial residual = 0.000355798308342, Final residual = 2.49197044755e-05, No Iterations 4
smoothSolver:  Solving for k, Initial residual = 0.00629978229242, Final residual = 0.000583244285639, No Iterations 4
ExecutionTime = 42.94 s  ClockTime = 46 s

Time = 85

smoothSolver:  Solving for Ux, Initial residual = 0.000700777267691, Final residual = 4.09189949044e-05, No Iterations 5
smoothSolver:  Solving for Uy, Initial residual = 0.00326969904549, Final residual = 0.000209720215793, No Iterations 5
smoothSolver:  Solving for Uz, Initial residual = 0.00331053077873, Final residual = 0.000252332594593, No Iterations 5
GAMG:  Solving for p, Initial residual = 0.012000753242, Final residual = 0.000742116720759, No Iterations 3
time step continuity errors : sum local = 1.49361020264e-06, global = -6.85213230804e-09, cumulative = -0.000122394316627
smoothSolver:  Solving for epsilon, Initial residual = 0.000336819080428, Final residual = 2.35728698662e-05, No Iterations 4
smoothSolver:  Solving for k, Initial residual = 0.00624408749283, Final residual = 0.00057825456816, No Iterations 4
ExecutionTime = 43.46 s  ClockTime = 47 s

Time = 86

smoothSolver:  Solving for Ux, Initial residual = 0.000685868620998, Final residual = 3.99792260518e-05, No Iterations 5
smoothSolver:  Solving for Uy, Initial residual = 0.0032195310543, Final residual = 0.000206717057752, No Iterations 5
smoothSolver:  Solving for Uz, Initial residual = 0.00327317814366, Final residual = 0.000249607031216, No Iterations 5
GAMG:  Solving for p, Initial residual = 0.0115588488942, Final residual = 0.000691215517348, No Iterations 3
time step continuity errors : sum local = 1.40034688893e-06, global = -7.07079932166e-09, cumulative = -0.000122401387427
smoothSolver:  Solving for epsilon, Initial residual = 0.000318623608452, Final residual = 2.22748647293e-05, No Iterations 4
smoothSolver:  Solving for k, Initial residual = 0.00618850750136, Final residual = 0.000573300477845, No Iterations 4
ExecutionTime = 43.99 s  ClockTime = 48 s

Time = 87

smoothSolver:  Solving for Ux, Initial residual = 0.000669030828375, Final residual = 3.89286415367e-05, No Iterations 5
smoothSolver:  Solving for Uy, Initial residual = 0.00316253545046, Final residual = 0.000203182457854, No Iterations 5
smoothSolver:  Solving for Uz, Initial residual = 0.00321888723076, Final residual = 0.000245309574613, No Iterations 5
GAMG:  Solving for p, Initial residual = 0.0111676963981, Final residual = 0.000645063498232, No Iterations 3
time step continuity errors : sum local = 1.31386110694e-06, global = -6.03774194603e-09, cumulative = -0.000122407425169
smoothSolver:  Solving for epsilon, Initial residual = 0.000301192286397, Final residual = 2.10266029337e-05, No Iterations 4
smoothSolver:  Solving for k, Initial residual = 0.00613284002761, Final residual = 0.000568409565282, No Iterations 4
ExecutionTime = 44.5 s  ClockTime = 48 s

Time = 88

smoothSolver:  Solving for Ux, Initial residual = 0.000650974578176, Final residual = 3.78044944609e-05, No Iterations 5
smoothSolver:  Solving for Uy, Initial residual = 0.00310410323195, Final residual = 0.000199466784122, No Iterations 5
smoothSolver:  Solving for Uz, Initial residual = 0.003145917967, Final residual = 0.000239342194718, No Iterations 5
GAMG:  Solving for p, Initial residual = 0.0108026345007, Final residual = 0.000616879502852, No Iterations 3
time step continuity errors : sum local = 1.26196999086e-06, global = -7.49188556343e-09, cumulative = -0.000122414917054
smoothSolver:  Solving for epsilon, Initial residual = 0.00028454409702, Final residual = 1.98290963363e-05, No Iterations 4
smoothSolver:  Solving for k, Initial residual = 0.00607784081296, Final residual = 0.000563459553661, No Iterations 4
ExecutionTime = 45.02 s  ClockTime = 49 s

Time = 89

smoothSolver:  Solving for Ux, Initial residual = 0.000633451452353, Final residual = 3.67089854562e-05, No Iterations 5
[...]
smoothSolver:  Solving for k, Initial residual = 0.000371595913337, Final residual = 2.68089173711e-05, No Iterations 4
ExecutionTime = 93.98 s  ClockTime = 107 s

Time = 176

smoothSolver:  Solving for Ux, Initial residual = 2.57681921403e-05, Final residual = 2.32174105602e-06, No Iterations 4
smoothSolver:  Solving for Uy, Initial residual = 0.000185561967959, Final residual = 1.04067439677e-05, No Iterations 5
smoothSolver:  Solving for Uz, Initial residual = 0.000188147221419, Final residual = 1.1504463403e-05, No Iterations 5
GAMG:  Solving for p, Initial residual = 0.000313990730649, Final residual = 2.31659886912e-05, No Iterations 3
time step continuity errors : sum local = 5.54663259366e-08, global = -2.09521231404e-09, cumulative = -0.000122641914615
smoothSolver:  Solving for epsilon, Initial residual = 6.02794535753e-06, Final residual = 4.85411865754e-07, No Iterations 3
smoothSolver:  Solving for k, Initial residual = 0.000348222646463, Final residual = 2.5208306903e-05, No Iterations 4
ExecutionTime = 94.47 s  ClockTime = 107 s

Time = 177

smoothSolver:  Solving for Ux, Initial residual = 2.43537429501e-05, Final residual = 2.19573840677e-06, No Iterations 4
smoothSolver:  Solving for Uy, Initial residual = 0.000174011149957, Final residual = 9.7633353925e-06, No Iterations 5
smoothSolver:  Solving for Uz, Initial residual = 0.000177761143775, Final residual = 1.08845974551e-05, No Iterations 5
GAMG:  Solving for p, Initial residual = 0.000295488257683, Final residual = 2.17843073426e-05, No Iterations 3
time step continuity errors : sum local = 5.21686840448e-08, global = -1.97957898723e-09, cumulative = -0.000122643894194
smoothSolver:  Solving for epsilon, Initial residual = 5.73200587278e-06, Final residual = 4.59880108514e-07, No Iterations 3
smoothSolver:  Solving for k, Initial residual = 0.000326633471873, Final residual = 2.3720000763e-05, No Iterations 4
ExecutionTime = 94.96 s  ClockTime = 108 s

Time = 178

smoothSolver:  Solving for Ux, Initial residual = 2.30185337793e-05, Final residual = 2.07671223506e-06, No Iterations 4
smoothSolver:  Solving for Uy, Initial residual = 0.000163122530553, Final residual = 9.15944824676e-06, No Iterations 5
smoothSolver:  Solving for Uz, Initial residual = 0.000167928165469, Final residual = 1.02962836632e-05, No Iterations 5
GAMG:  Solving for p, Initial residual = 0.000278246404444, Final residual = 2.05257986261e-05, No Iterations 3
time step continuity errors : sum local = 4.91641042289e-08, global = -1.8753732899e-09, cumulative = -0.000122645769567
smoothSolver:  Solving for epsilon, Initial residual = 5.45106124849e-06, Final residual = 4.35735991386e-07, No Iterations 3
smoothSolver:  Solving for k, Initial residual = 0.000306642417982, Final residual = 2.23330872279e-05, No Iterations 4
ExecutionTime = 95.46 s  ClockTime = 108 s

Time = 179

smoothSolver:  Solving for Ux, Initial residual = 2.17588013378e-05, Final residual = 1.96430472349e-06, No Iterations 4
smoothSolver:  Solving for Uy, Initial residual = 0.000152857774001, Final residual = 8.59269630116e-06, No Iterations 5
smoothSolver:  Solving for Uz, Initial residual = 0.000158648923114, Final residual = 9.74031956859e-06, No Iterations 5
GAMG:  Solving for p, Initial residual = 0.000262092427844, Final residual = 1.93620234927e-05, No Iterations 3
time step continuity errors : sum local = 4.63848090786e-08, global = -1.77732645723e-09, cumulative = -0.000122647546893
smoothSolver:  Solving for epsilon, Initial residual = 5.1836993529e-06, Final residual = 4.12864536172e-07, No Iterations 3
smoothSolver:  Solving for k, Initial residual = 0.00028810548287, Final residual = 2.10380176462e-05, No Iterations 4
ExecutionTime = 95.95 s  ClockTime = 109 s

Time = 180

smoothSolver:  Solving for Ux, Initial residual = 2.05702656315e-05, Final residual = 1.85814002102e-06, No Iterations 4
smoothSolver:  Solving for Uy, Initial residual = 0.000143187767679, Final residual = 8.06043424116e-06, No Iterations 5
smoothSolver:  Solving for Uz, Initial residual = 0.000149909244871, Final residual = 9.21623215535e-06, No Iterations 5
GAMG:  Solving for p, Initial residual = 0.000246919987786, Final residual = 1.82709837738e-05, No Iterations 3
time step continuity errors : sum local = 4.37783495518e-08, global = -1.68072699503e-09, cumulative = -0.00012264922762
smoothSolver:  Solving for epsilon, Initial residual = 4.92850943858e-06, Final residual = 3.91182745198e-07, No Iterations 3
smoothSolver:  Solving for k, Initial residual = 0.000270870968644, Final residual = 1.98261211014e-05, No Iterations 4
ExecutionTime = 96.48 s  ClockTime = 109 s

Time = 181

smoothSolver:  Solving for Ux, Initial residual = 1.94486729214e-05, Final residual = 1.75782558764e-06, No Iterations 4
smoothSolver:  Solving for Uy, Initial residual = 0.00013408927535, Final residual = 7.56094178994e-06, No Iterations 5
smoothSolver:  Solving for Uz, Initial residual = 0.000141675924421, Final residual = 8.72189315563e-06, No Iterations 5
GAMG:  Solving for p, Initial residual = 0.000232660981112, Final residual = 1.72436063618e-05, No Iterations 3
time step continuity errors : sum local = 4.13231735762e-08, global = -1.58386101834e-09, cumulative = -0.000122650811481
smoothSolver:  Solving for epsilon, Initial residual = 4.68419923059e-06, Final residual = 3.70620655149e-07, No Iterations 3
smoothSolver:  Solving for k, Initial residual = 0.000254816862558, Final residual = 1.86902534317e-05, No Iterations 4
ExecutionTime = 96.98 s  ClockTime = 110 s

Time = 182

smoothSolver:  Solving for Ux, Initial residual = 1.83899131526e-05, Final residual = 1.66303947155e-06, No Iterations 4
smoothSolver:  Solving for Uy, Initial residual = 0.000125538827738, Final residual = 7.09246174047e-06, No Iterations 5
smoothSolver:  Solving for Uz, Initial residual = 0.000133908465729, Final residual = 8.25451303637e-06, No Iterations 5
GAMG:  Solving for p, Initial residual = 0.000219254502279, Final residual = 1.62728285e-05, No Iterations 3
time step continuity errors : sum local = 3.90025162244e-08, global = -1.48891948654e-09, cumulative = -0.000122652300401
smoothSolver:  Solving for epsilon, Initial residual = 4.45044415373e-06, Final residual = 3.51102086865e-07, No Iterations 3
smoothSolver:  Solving for k, Initial residual = 0.000239836118627, Final residual = 1.76242202761e-05, No Iterations 4
ExecutionTime = 97.52 s  ClockTime = 111 s

Time = 183

smoothSolver:  Solving for Ux, Initial residual = 1.73905656906e-05, Final residual = 1.57347818192e-06, No Iterations 4
smoothSolver:  Solving for Uy, Initial residual = 0.000117521317345, Final residual = 6.65353195092e-06, No Iterations 5
smoothSolver:  Solving for Uz, Initial residual = 0.000126570179278, Final residual = 7.81168505058e-06, No Iterations 5
GAMG:  Solving for p, Initial residual = 0.00020671026122, Final residual = 1.53645933222e-05, No Iterations 3
time step continuity errors : sum local = 3.68307713547e-08, global = -1.40017452286e-09, cumulative = -0.000122653700575
smoothSolver:  Solving for epsilon, Initial residual = 4.22680889458e-06, Final residual = 3.32576718761e-07, No Iterations 3
smoothSolver:  Solving for k, Initial residual = 0.00022583343564, Final residual = 1.66227086578e-05, No Iterations 4
ExecutionTime = 98.02 s  ClockTime = 111 s

Time = 184

smoothSolver:  Solving for Ux, Initial residual = 1.64475899351e-05, Final residual = 1.48888348437e-06, No Iterations 4
smoothSolver:  Solving for Uy, Initial residual = 0.000110007322311, Final residual = 6.241808269e-06, No Iterations 5
smoothSolver:  Solving for Uz, Initial residual = 0.000119637110557, Final residual = 7.39211393735e-06, No Iterations 5
GAMG:  Solving for p, Initial residual = 0.000194989962874, Final residual = 1.45193372534e-05, No Iterations 3
time step continuity errors : sum local = 3.48091306248e-08, global = -1.3186633666e-09, cumulative = -0.000122655019239
smoothSolver:  Solving for epsilon, Initial residual = 4.01299057739e-06, Final residual = 3.1498711668e-07, No Iterations 3
smoothSolver:  Solving for k, Initial residual = 0.000212729518491, Final residual = 1.56808535462e-05, No Iterations 4
ExecutionTime = 98.52 s  ClockTime = 112 s

Time = 185

smoothSolver:  Solving for Ux, Initial residual = 1.55579287773e-05, Final residual = 1.40901458574e-06, No Iterations 4
smoothSolver:  Solving for Uy, Initial residual = 0.000102966179387, Final residual = 5.85505499652e-06, No Iterations 5
smoothSolver:  Solving for Uz, Initial residual = 0.000113094866138, Final residual = 6.99532335501e-06, No Iterations 5
GAMG:  Solving for p, Initial residual = 0.000184014424523, Final residual = 1.37345831262e-05, No Iterations 3
time step continuity errors : sum local = 3.29317858776e-08, global = -1.24405986405e-09, cumulative = -0.000122656263299
smoothSolver:  Solving for epsilon, Initial residual = 3.808729031e-06, Final residual = 2.98299754699e-07, No Iterations 3
smoothSolver:  Solving for k, Initial residual = 0.000200452169714, Final residual = 1.47952676094e-05, No Iterations 4
ExecutionTime = 99.02 s  ClockTime = 112 s

Time = 186

smoothSolver:  Solving for Ux, Initial residual = 1.47184439617e-05, Final residual = 1.33359501384e-06, No Iterations 4
smoothSolver:  Solving for Uy, Initial residual = 9.6368992465e-05, Final residual = 5.49148864755e-06, No Iterations 5
smoothSolver:  Solving for Uz, Initial residual = 0.000106929302265, Final residual = 6.62081130074e-06, No Iterations 5
GAMG:  Solving for p, Initial residual = 0.00017373086839, Final residual = 1.29993521979e-05, No Iterations 3
time step continuity errors : sum local = 3.11725228609e-08, global = -1.17462634956e-09, cumulative = -0.000122657437925
smoothSolver:  Solving for epsilon, Initial residual = 3.61367349965e-06, Final residual = 2.82462889972e-07, No Iterations 3
smoothSolver:  Solving for k, Initial residual = 0.000188934354116, Final residual = 1.39618110742e-05, No Iterations 4
ExecutionTime = 99.54 s  ClockTime = 113 s

Time = 187

smoothSolver:  Solving for Ux, Initial residual = 1.39261580916e-05, Final residual = 1.26235484727e-06, No Iterations 4
smoothSolver:  Solving for Uy, Initial residual = 9.01887172882e-05, Final residual = 5.14955776323e-06, No Iterations 5
smoothSolver:  Solving for Uz, Initial residual = 0.000101121157935, Final residual = 6.26757780199e-06, No Iterations 5
GAMG:  Solving for p, Initial residual = 0.000164071128068, Final residual = 1.23051181176e-05, No Iterations 3
time step continuity errors : sum local = 2.95109831255e-08, global = -1.10892359095e-09, cumulative = -0.000122658546849
smoothSolver:  Solving for epsilon, Initial residual = 3.42760356961e-06, Final residual = 2.67432146826e-07, No Iterations 3
smoothSolver:  Solving for k, Initial residual = 0.000178123336576, Final residual = 1.31767367756e-05, No Iterations 4
ExecutionTime = 100.04 s  ClockTime = 113 s

Time = 188

smoothSolver:  Solving for Ux, Initial residual = 1.3178141012e-05, Final residual = 1.19502429513e-06, No Iterations 4
smoothSolver:  Solving for Uy, Initial residual = 8.44001345102e-05, Final residual = 4.82753498822e-06, No Iterations 5
smoothSolver:  Solving for Uz, Initial residual = 9.56458542136e-05, Final residual = 5.9341324354e-06, No Iterations 5
GAMG:  Solving for p, Initial residual = 0.000155000125729, Final residual = 1.16463306419e-05, No Iterations 3
time step continuity errors : sum local = 2.79339274989e-08, global = -1.04636941681e-09, cumulative = -0.000122659593218
smoothSolver:  Solving for epsilon, Initial residual = 3.25027615192e-06, Final residual = 2.53173642645e-07, No Iterations 3
smoothSolver:  Solving for k, Initial residual = 0.000167965611413, Final residual = 1.24367831489e-05, No Iterations 4
ExecutionTime = 100.53 s  ClockTime = 114 s

Time = 189

smoothSolver:  Solving for Ux, Initial residual = 1.247172535e-05, Final residual = 1.13137369779e-06, No Iterations 4
smoothSolver:  Solving for Uy, Initial residual = 7.89846965177e-05, Final residual = 4.52390053496e-06, No Iterations 5
smoothSolver:  Solving for Uz, Initial residual = 9.04782343932e-05, Final residual = 5.61886272579e-06, No Iterations 5
GAMG:  Solving for p, Initial residual = 0.000146466314693, Final residual = 1.10231346975e-05, No Iterations 3
time step continuity errors : sum local = 2.64417680719e-08, global = -9.8718340049e-10, cumulative = -0.000122660580401
smoothSolver:  Solving for epsilon, Initial residual = 3.08133997586e-06, Final residual = 2.39644060455e-07, No Iterations 3
smoothSolver:  Solving for k, Initial residual = 0.000158413858509, Final residual = 1.1739416956e-05, No Iterations 4
ExecutionTime = 101.04 s  ClockTime = 114 s

Time = 190

smoothSolver:  Solving for Ux, Initial residual = 1.18044626495e-05, Final residual = 1.0712049533e-06, No Iterations 4
smoothSolver:  Solving for Uy, Initial residual = 7.39187982847e-05, Final residual = 4.2379000506e-06, No Iterations 5
smoothSolver:  Solving for Uz, Initial residual = 8.55969439558e-05, Final residual = 5.32045982955e-06, No Iterations 5
GAMG:  Solving for p, Initial residual = 0.000138437837822, Final residual = 1.04357860301e-05, No Iterations 3
time step continuity errors : sum local = 2.50351776577e-08, global = -9.31412893934e-10, cumulative = -0.000122661511814
smoothSolver:  Solving for epsilon, Initial residual = 2.92058284259e-06, Final residual = 2.26807242035e-07, No Iterations 3
smoothSolver:  Solving for k, Initial residual = 0.000149428687555, Final residual = 1.10816033135e-05, No Iterations 4
ExecutionTime = 101.56 s  ClockTime = 115 s

Time = 191

smoothSolver:  Solving for Ux, Initial residual = 1.11741688397e-05, Final residual = 1.01433169407e-06, No Iterations 4
smoothSolver:  Solving for Uy, Initial residual = 6.91778116717e-05, Final residual = 3.96860183031e-06, No Iterations 5
smoothSolver:  Solving for Uz, Initial residual = 8.09857948978e-05, Final residual = 5.03804245114e-06, No Iterations 5
GAMG:  Solving for p, Initial residual = 0.000130882309084, Final residual = 9.88423418294e-06, No Iterations 3
time step continuity errors : sum local = 2.37140907614e-08, global = -8.79015351646e-10, cumulative = -0.00012266239083
smoothSolver:  Solving for epsilon, Initial residual = 2.76766699332e-06, Final residual = 2.14636065776e-07, No Iterations 3
smoothSolver:  Solving for k, Initial residual = 0.000140971181928, Final residual = 1.04613420777e-05, No Iterations 4
ExecutionTime = 102.07 s  ClockTime = 115 s

Time = 192

smoothSolver:  Solving for Ux, Initial residual = 1.05787604494e-05, Final residual = 9.6057507735e-07, No Iterations 4
smoothSolver:  Solving for Uy, Initial residual = 6.47367003168e-05, Final residual = 3.71509043367e-06, No Iterations 5
smoothSolver:  Solving for Uz, Initial residual = 7.66321167094e-05, Final residual = 4.7710043263e-06, No Iterations 5
GAMG:  Solving for p, Initial residual = 0.00012377529535, Final residual = 9.49272864075e-06, No Iterations 3
time step continuity errors : sum local = 2.27766799602e-08, global = -9.62903727373e-10, cumulative = -0.000122663353733
smoothSolver:  Solving for epsilon, Initial residual = 2.62227073197e-06, Final residual = 2.03102064483e-07, No Iterations 3
smoothSolver:  Solving for k, Initial residual = 0.000133007423836, Final residual = 9.87635770785e-06, No Iterations 4
ExecutionTime = 102.58 s  ClockTime = 116 s

Time = 193

smoothSolver:  Solving for Ux, Initial residual = 1.00166933529e-05, Final residual = 9.09801602884e-07, No Iterations 4
smoothSolver:  Solving for Uy, Initial residual = 6.05794967972e-05, Final residual = 3.47695259622e-06, No Iterations 5
smoothSolver:  Solving for Uz, Initial residual = 7.25100445306e-05, Final residual = 4.51743635625e-06, No Iterations 5
GAMG:  Solving for p, Initial residual = 0.000117140185792, Final residual = 9.01366485632e-06, No Iterations 3
time step continuity errors : sum local = 2.16289142468e-08, global = -9.13920279393e-10, cumulative = -0.000122664267654
smoothSolver:  Solving for epsilon, Initial residual = 2.4840459256e-06, Final residual = 1.92178299922e-07, No Iterations 3
smoothSolver:  Solving for k, Initial residual = 0.000125507863378, Final residual = 9.32444714315e-06, No Iterations 4
ExecutionTime = 103.07 s  ClockTime = 116 s

Time = 194

smoothSolver:  Solving for Ux, Initial residual = 9.48501766061e-06, Final residual = 8.61742404319e-07, No Iterations 4
smoothSolver:  Solving for Uy, Initial residual = 5.66771833114e-05, Final residual = 3.25243095723e-06, No Iterations 5
smoothSolver:  Solving for Uz, Initial residual = 6.86332160804e-05, Final residual = 4.27920703204e-06, No Iterations 5
GAMG:  Solving for p, Initial residual = 0.000110873584602, Final residual = 8.55513514483e-06, No Iterations 3
time step continuity errors : sum local = 2.05301627273e-08, global = -8.65981853294e-10, cumulative = -0.000122665133636
smoothSolver:  Solving for epsilon, Initial residual = 2.35278006622e-06, Final residual = 1.81838110941e-07, No Iterations 3
smoothSolver:  Solving for k, Initial residual = 0.000118442949975, Final residual = 8.80399424627e-06, No Iterations 4
ExecutionTime = 103.6 s  ClockTime = 117 s

Time = 195

smoothSolver:  Solving for Ux, Initial residual = 8.98214106173e-06, Final residual = 8.16259507806e-07, No Iterations 4
smoothSolver:  Solving for Uy, Initial residual = 5.30149557093e-05, Final residual = 3.04108910117e-06, No Iterations 5
smoothSolver:  Solving for Uz, Initial residual = 6.4982537988e-05, Final residual = 4.05499857391e-06, No Iterations 5
GAMG:  Solving for p, Initial residual = 0.000104931826168, Final residual = 8.10626025528e-06, No Iterations 3
time step continuity errors : sum local = 1.94543433654e-08, global = -8.16068875789e-10, cumulative = -0.000122665949704
smoothSolver:  Solving for epsilon, Initial residual = 2.22819822508e-06, Final residual = 1.72050210183e-07, No Iterations 3
smoothSolver:  Solving for k, Initial residual = 0.000111785588175, Final residual = 8.31293482123e-06, No Iterations 4
ExecutionTime = 104.11 s  ClockTime = 117 s

Time = 196

smoothSolver:  Solving for Ux, Initial residual = 8.50655370196e-06, Final residual = 7.73218489301e-07, No Iterations 4
smoothSolver:  Solving for Uy, Initial residual = 4.95818767005e-05, Final residual = 2.84263143334e-06, No Iterations 5
smoothSolver:  Solving for Uz, Initial residual = 6.1531855758e-05, Final residual = 3.84281180844e-06, No Iterations 5
GAMG:  Solving for p, Initial residual = 9.92760632791e-05, Final residual = 7.67120152778e-06, No Iterations 3
time step continuity errors : sum local = 1.84114621083e-08, global = -7.65418602717e-10, cumulative = -0.000122666715123
smoothSolver:  Solving for epsilon, Initial residual = 2.10995075271e-06, Final residual = 1.62786119554e-07, No Iterations 3
smoothSolver:  Solving for k, Initial residual = 0.00010550984342, Final residual = 7.84980780984e-06, No Iterations 4
ExecutionTime = 104.62 s  ClockTime = 118 s

Time = 197

smoothSolver:  Solving for Ux, Initial residual = 8.05674826136e-06, Final residual = 7.3248751902e-07, No Iterations 4
smoothSolver:  Solving for Uy, Initial residual = 4.63684279481e-05, Final residual = 2.65668799033e-06, No Iterations 5
smoothSolver:  Solving for Uz, Initial residual = 5.82598449026e-05, Final residual = 3.64108777642e-06, No Iterations 5
GAMG:  Solving for p, Initial residual = 9.39484529935e-05, Final residual = 7.25986281377e-06, No Iterations 3
time step continuity errors : sum local = 1.74253108657e-08, global = -7.17648421246e-10, cumulative = -0.000122667432771
smoothSolver:  Solving for epsilon, Initial residual = 1.99779319711e-06, Final residual = 1.54017993253e-07, No Iterations 3
smoothSolver:  Solving for k, Initial residual = 9.9594460273e-05, Final residual = 7.41281969568e-06, No Iterations 4
ExecutionTime = 105.13 s  ClockTime = 118 s


SIMPLE solution converged in 197 iterations

End

Finalising parallel run
