/*---------------------------------------------------------------------------*\
| =========                 |                                                 |
| \\      /  F ield         | OpenFOAM: The Open Source CFD Toolbox           |
|  \\    /   O peration     | Version:  4.0                                   |
|   \\  /    A nd           | Web:      www.OpenFOAM.org                      |
|    \\/     M anipulation  |                                                 |
\*---------------------------------------------------------------------------*/
Build  : 4.0-665f1db4c1f1
Exec   : simpleFoam -parallel
Date   : Feb 15 2017
Time   : 18:00:11
Host   : "radunz-Aspire-E5-571"
PID    : 7375
Case   : /home/radunz/OpenFOAM/radunz-4.1/run/incompressible/simpleFoam/turbineSitingEmpty
nProcs : 4
Slaves : 
3
(
"radunz-Aspire-E5-571.7376"
"radunz-Aspire-E5-571.7377"
"radunz-Aspire-E5-571.7378"
)

Pstream initialized with:
    floatTransfer      : 0
    nProcsSimpleSum    : 0
    commsType          : nonBlocking
    polling iterations : 0
sigFpe : Enabling floating point exception trapping (FOAM_SIGFPE).
fileModificationChecking : Monitoring run-time modified files using timeStampMaster
allowSystemOperations : Allowing user-supplied system call operations

// * * * * * * * * * * * * * * * * * * * * * * * * * * * * * * * * * * * * * //
Create time

Create mesh for time = 0


SIMPLE: convergence criteria
    field p	 tolerance 0.001
    field U	 tolerance 0.0001
    field "(k|epsilon)"	 tolerance 0.0001

Reading field p

Reading field U

Reading/calculating face flux field phi

Selecting incompressible transport model Newtonian
Selecting turbulence model type RAS
Selecting RAS turbulence model kEpsilon
bounding k, min: 0 max: 1.992293254 average: 1.3
bounding epsilon, min: 0 max: 0.12053587118 average: 0.01
kEpsilonCoeffs
{
    Cmu             0.09;
    C1              1.44;
    C2              1.92;
    sigmaEps        1.11;
    C3              -0.33;
    sigmak          1;
}

No MRF models present

Creating finite volume options from "constant/fvOptions"


Starting time loop

Time = 1

smoothSolver:  Solving for Ux, Initial residual = 1, Final residual = 0.0448459478332, No Iterations 1
smoothSolver:  Solving for Uy, Initial residual = 1, Final residual = 0.0484652918004, No Iterations 1
smoothSolver:  Solving for Uz, Initial residual = 1, Final residual = 0.0552857743373, No Iterations 1
GAMG:  Solving for p, Initial residual = 1, Final residual = 0.0643631308623, No Iterations 3
time step continuity errors : sum local = 0.000954161170479, global = 0.000213555212615, cumulative = 0.000213555212615
smoothSolver:  Solving for epsilon, Initial residual = 1, Final residual = 0.0322163837786, No Iterations 2
smoothSolver:  Solving for k, Initial residual = 0.999999999999, Final residual = 0.0360883188422, No Iterations 2
ExecutionTime = 0.06 s  ClockTime = 0 s

Time = 2

smoothSolver:  Solving for Ux, Initial residual = 0.646085948956, Final residual = 0.037314690701, No Iterations 2
smoothSolver:  Solving for Uy, Initial residual = 0.337094348785, Final residual = 0.0138480759067, No Iterations 2
smoothSolver:  Solving for Uz, Initial residual = 0.36101061123, Final residual = 0.0168405472489, No Iterations 2
GAMG:  Solving for p, Initial residual = 0.135070501679, Final residual = 0.00646301509615, No Iterations 3
time step continuity errors : sum local = 0.000397459570763, global = 9.06262560017e-05, cumulative = 0.000304181468616
smoothSolver:  Solving for epsilon, Initial residual = 0.551868337809, Final residual = 0.0162106448095, No Iterations 2
smoothSolver:  Solving for k, Initial residual = 0.401017247164, Final residual = 0.0126835390964, No Iterations 2
ExecutionTime = 0.09 s  ClockTime = 0 s

Time = 3

smoothSolver:  Solving for Ux, Initial residual = 0.873657885585, Final residual = 0.0486991305761, No Iterations 2
smoothSolver:  Solving for Uy, Initial residual = 0.329576187451, Final residual = 0.02017199083, No Iterations 2
smoothSolver:  Solving for Uz, Initial residual = 0.32367606035, Final residual = 0.0250137224809, No Iterations 2
GAMG:  Solving for p, Initial residual = 0.0301928659209, Final residual = 0.00262120145658, No Iterations 2
time step continuity errors : sum local = 0.000521467501981, global = 0.000221640363598, cumulative = 0.000525821832214
smoothSolver:  Solving for epsilon, Initial residual = 0.620281513866, Final residual = 0.0422330787497, No Iterations 2
smoothSolver:  Solving for k, Initial residual = 0.493615398746, Final residual = 0.022999516244, No Iterations 2
ExecutionTime = 0.12 s  ClockTime = 0 s

Time = 4

smoothSolver:  Solving for Ux, Initial residual = 0.61802830594, Final residual = 0.0339179070744, No Iterations 2
smoothSolver:  Solving for Uy, Initial residual = 0.488238896089, Final residual = 0.0352051001719, No Iterations 2
smoothSolver:  Solving for Uz, Initial residual = 0.0974412328675, Final residual = 0.00615588688273, No Iterations 2
GAMG:  Solving for p, Initial residual = 0.0742219179722, Final residual = 0.00293287158224, No Iterations 3
time step continuity errors : sum local = 0.000367479103283, global = -8.34480303969e-05, cumulative = 0.000442373801817
smoothSolver:  Solving for epsilon, Initial residual = 0.403261286904, Final residual = 0.0148571046644, No Iterations 3
smoothSolver:  Solving for k, Initial residual = 0.298237095019, Final residual = 0.0281616817649, No Iterations 2
ExecutionTime = 0.15 s  ClockTime = 0 s

Time = 5

smoothSolver:  Solving for Ux, Initial residual = 0.328273362514, Final residual = 0.0194837106086, No Iterations 2
smoothSolver:  Solving for Uy, Initial residual = 0.30884400232, Final residual = 0.0220845877979, No Iterations 2
smoothSolver:  Solving for Uz, Initial residual = 0.256608807514, Final residual = 0.0197920753429, No Iterations 2
GAMG:  Solving for p, Initial residual = 0.119411412325, Final residual = 0.0102259999943, No Iterations 2
time step continuity errors : sum local = 0.000469505540971, global = 0.000267504615707, cumulative = 0.000709878417525
smoothSolver:  Solving for epsilon, Initial residual = 0.109758949576, Final residual = 0.00390153676786, No Iterations 3
smoothSolver:  Solving for k, Initial residual = 0.083777957212, Final residual = 0.00352966340267, No Iterations 3
ExecutionTime = 0.19 s  ClockTime = 1 s

Time = 6

smoothSolver:  Solving for Ux, Initial residual = 0.575705133047, Final residual = 0.036884189765, No Iterations 2
smoothSolver:  Solving for Uy, Initial residual = 0.191928958686, Final residual = 0.0139044543986, No Iterations 2
smoothSolver:  Solving for Uz, Initial residual = 0.476165404889, Final residual = 0.0403909902561, No Iterations 2
GAMG:  Solving for p, Initial residual = 0.0525217137086, Final residual = 0.00303792436484, No Iterations 2
time step continuity errors : sum local = 0.000327184676248, global = -0.000135385035017, cumulative = 0.000574493382508
smoothSolver:  Solving for epsilon, Initial residual = 0.0723629886497, Final residual = 0.00352723504433, No Iterations 2
smoothSolver:  Solving for k, Initial residual = 0.0739241723856, Final residual = 0.00317021195123, No Iterations 2
ExecutionTime = 0.22 s  ClockTime = 1 s

Time = 7

smoothSolver:  Solving for Ux, Initial residual = 0.407696163142, Final residual = 0.0296193569786, No Iterations 2
smoothSolver:  Solving for Uy, Initial residual = 0.409533722033, Final residual = 0.0361060384218, No Iterations 2
smoothSolver:  Solving for Uz, Initial residual = 0.374634649009, Final residual = 0.0294989276738, No Iterations 2
GAMG:  Solving for p, Initial residual = 0.0928162422094, Final residual = 0.0082854506415, No Iterations 2
time step continuity errors : sum local = 0.000527135048788, global = -0.000204008422999, cumulative = 0.000370484959509
smoothSolver:  Solving for epsilon, Initial residual = 0.0707264282306, Final residual = 0.00508228578721, No Iterations 2
smoothSolver:  Solving for k, Initial residual = 0.0655519613683, Final residual = 0.00437198452719, No Iterations 2
ExecutionTime = 0.25 s  ClockTime = 1 s

Time = 8

smoothSolver:  Solving for Ux, Initial residual = 0.175491962205, Final residual = 0.0112624572044, No Iterations 2
smoothSolver:  Solving for Uy, Initial residual = 0.561883335219, Final residual = 0.0529933354487, No Iterations 2
smoothSolver:  Solving for Uz, Initial residual = 0.181512635053, Final residual = 0.0131624871848, No Iterations 2
GAMG:  Solving for p, Initial residual = 0.117125048438, Final residual = 0.00823421783735, No Iterations 2
time step continuity errors : sum local = 0.000265583240192, global = -0.000147082847446, cumulative = 0.000223402112063
smoothSolver:  Solving for epsilon, Initial residual = 0.0408562740613, Final residual = 0.00271772882876, No Iterations 2
smoothSolver:  Solving for k, Initial residual = 0.041471794895, Final residual = 0.00253025595698, No Iterations 2
ExecutionTime = 0.29 s  ClockTime = 1 s

Time = 9

smoothSolver:  Solving for Ux, Initial residual = 0.336140818088, Final residual = 0.0247132144302, No Iterations 2
smoothSolver:  Solving for Uy, Initial residual = 0.169622415487, Final residual = 0.0143104128655, No Iterations 2
smoothSolver:  Solving for Uz, Initial residual = 0.275131060217, Final residual = 0.0257596233418, No Iterations 2
GAMG:  Solving for p, Initial residual = 0.0595849978312, Final residual = 0.00314630381195, No Iterations 2
time step continuity errors : sum local = 0.000214429687504, global = 0.000107371246998, cumulative = 0.000330773359061
smoothSolver:  Solving for epsilon, Initial residual = 0.0191364321301, Final residual = 0.0014002956418, No Iterations 2
smoothSolver:  Solving for k, Initial residual = 0.0251348381383, Final residual = 0.000999698661738, No Iterations 3
ExecutionTime = 0.32 s  ClockTime = 1 s

Time = 10

smoothSolver:  Solving for Ux, Initial residual = 0.215941613929, Final residual = 0.0179076003491, No Iterations 2
smoothSolver:  Solving for Uy, Initial residual = 0.472034222414, Final residual = 0.0158093198763, No Iterations 3
smoothSolver:  Solving for Uz, Initial residual = 0.36245305739, Final residual = 0.0335038939512, No Iterations 2
GAMG:  Solving for p, Initial residual = 0.0861402107898, Final residual = 0.00683103562147, No Iterations 2
time step continuity errors : sum local = 0.000285927140969, global = 0.000113642591474, cumulative = 0.000444415950535
smoothSolver:  Solving for epsilon, Initial residual = 0.0220260383507, Final residual = 0.0020184221195, No Iterations 2
smoothSolver:  Solving for k, Initial residual = 0.0255001869634, Final residual = 0.00120177006569, No Iterations 3
ExecutionTime = 0.35 s  ClockTime = 1 s

Time = 11

smoothSolver:  Solving for Ux, Initial residual = 0.104531852114, Final residual = 0.00866638922404, No Iterations 2
smoothSolver:  Solving for Uy, Initial residual = 0.5981227271, Final residual = 0.0217706523987, No Iterations 3
smoothSolver:  Solving for Uz, Initial residual = 0.408181017169, Final residual = 0.0380250743438, No Iterations 2
GAMG:  Solving for p, Initial residual = 0.193614790329, Final residual = 0.0112398282005, No Iterations 2
time step continuity errors : sum local = 0.000147067455089, global = 7.67699747954e-05, cumulative = 0.00052118592533
smoothSolver:  Solving for epsilon, Initial residual = 0.0255493784358, Final residual = 0.00167753643987, No Iterations 2
smoothSolver:  Solving for k, Initial residual = 0.0254845224306, Final residual = 0.00177000834361, No Iterations 2
ExecutionTime = 0.38 s  ClockTime = 1 s

Time = 12

smoothSolver:  Solving for Ux, Initial residual = 0.223887103284, Final residual = 0.0194403198661, No Iterations 2
smoothSolver:  Solving for Uy, Initial residual = 0.155914298418, Final residual = 0.0139728430069, No Iterations 2
smoothSolver:  Solving for Uz, Initial residual = 0.335950583861, Final residual = 0.0123857027095, No Iterations 3
GAMG:  Solving for p, Initial residual = 0.0781038519677, Final residual = 0.00464554290578, No Iterations 2
time step continuity errors : sum local = 0.000161974205201, global = -8.20671259851e-05, cumulative = 0.000439118799345
smoothSolver:  Solving for epsilon, Initial residual = 0.0311225360455, Final residual = 0.00297388008136, No Iterations 2
smoothSolver:  Solving for k, Initial residual = 0.0243595692132, Final residual = 0.00224596436024, No Iterations 2
ExecutionTime = 0.41 s  ClockTime = 1 s

Time = 13

smoothSolver:  Solving for Ux, Initial residual = 0.145649124622, Final residual = 0.00506277313178, No Iterations 3
smoothSolver:  Solving for Uy, Initial residual = 0.401796468381, Final residual = 0.0153439105334, No Iterations 3
smoothSolver:  Solving for Uz, Initial residual = 0.17764582077, Final residual = 0.00668968935232, No Iterations 3
GAMG:  Solving for p, Initial residual = 0.0997819035517, Final residual = 0.00802871957068, No Iterations 2
time step continuity errors : sum local = 0.000182819304656, global = -7.76307884513e-05, cumulative = 0.000361488010894
smoothSolver:  Solving for epsilon, Initial residual = 0.0321972646965, Final residual = 0.00125620852677, No Iterations 3
smoothSolver:  Solving for k, Initial residual = 0.0240407880509, Final residual = 0.000860505726093, No Iterations 3
ExecutionTime = 0.44 s  ClockTime = 1 s

Time = 14

smoothSolver:  Solving for Ux, Initial residual = 0.0521200470102, Final residual = 0.0039178852657, No Iterations 2
smoothSolver:  Solving for Uy, Initial residual = 0.560535501144, Final residual = 0.0235422614052, No Iterations 3
smoothSolver:  Solving for Uz, Initial residual = 0.0863737917877, Final residual = 0.00788616131985, No Iterations 2
GAMG:  Solving for p, Initial residual = 0.162645762027, Final residual = 0.0102324821678, No Iterations 2
time step continuity errors : sum local = 0.000103359326357, global = -5.58300848242e-05, cumulative = 0.000305657926069
smoothSolver:  Solving for epsilon, Initial residual = 0.0238454105414, Final residual = 0.000934093004523, No Iterations 3
smoothSolver:  Solving for k, Initial residual = 0.0187024886988, Final residual = 0.0017793805448, No Iterations 2
ExecutionTime = 0.47 s  ClockTime = 1 s

Time = 15

smoothSolver:  Solving for Ux, Initial residual = 0.101585699434, Final residual = 0.00933978142343, No Iterations 2
smoothSolver:  Solving for Uy, Initial residual = 0.244959553008, Final residual = 0.00957856662617, No Iterations 3
smoothSolver:  Solving for Uz, Initial residual = 0.104610812586, Final residual = 0.00416890579589, No Iterations 3
GAMG:  Solving for p, Initial residual = 0.0723712322402, Final residual = 0.0044663042527, No Iterations 2
time step continuity errors : sum local = 0.000107212375522, global = 5.03519501799e-05, cumulative = 0.000356009876249
smoothSolver:  Solving for epsilon, Initial residual = 0.0137271967572, Final residual = 0.00136344477409, No Iterations 2
smoothSolver:  Solving for k, Initial residual = 0.0125301720271, Final residual = 0.00103829339034, No Iterations 2
ExecutionTime = 0.5 s  ClockTime = 1 s

Time = 16

smoothSolver:  Solving for Ux, Initial residual = 0.0765317996584, Final residual = 0.00277071859357, No Iterations 3
smoothSolver:  Solving for Uy, Initial residual = 0.356376131467, Final residual = 0.0150014010004, No Iterations 3
smoothSolver:  Solving for Uz, Initial residual = 0.127116204218, Final residual = 0.00466301657368, No Iterations 3
GAMG:  Solving for p, Initial residual = 0.0795612761284, Final residual = 0.00683958724019, No Iterations 2
time step continuity errors : sum local = 0.000125552815338, global = 5.08727646958e-05, cumulative = 0.000406882640945
smoothSolver:  Solving for epsilon, Initial residual = 0.0100777213591, Final residual = 0.000852115073377, No Iterations 2
smoothSolver:  Solving for k, Initial residual = 0.00996717202683, Final residual = 0.000911803182622, No Iterations 2
ExecutionTime = 0.54 s  ClockTime = 1 s

Time = 17

smoothSolver:  Solving for Ux, Initial residual = 0.0279731912139, Final residual = 0.00108161687712, No Iterations 3
smoothSolver:  Solving for Uy, Initial residual = 0.492506087501, Final residual = 0.0231669739607, No Iterations 3
smoothSolver:  Solving for Uz, Initial residual = 0.142704533822, Final residual = 0.00506008084055, No Iterations 3
GAMG:  Solving for p, Initial residual = 0.436313657992, Final residual = 0.0328850252068, No Iterations 2
time step continuity errors : sum local = 8.24671609979e-05, global = 4.49281984323e-05, cumulative = 0.000451810839377
smoothSolver:  Solving for epsilon, Initial residual = 0.010846610099, Final residual = 0.00039102660112, No Iterations 3
smoothSolver:  Solving for k, Initial residual = 0.00999947090522, Final residual = 0.000939645058038, No Iterations 2
ExecutionTime = 0.57 s  ClockTime = 1 s

Time = 18

smoothSolver:  Solving for Ux, Initial residual = 0.0573924524341, Final residual = 0.00217088467619, No Iterations 3
smoothSolver:  Solving for Uy, Initial residual = 0.254012423023, Final residual = 0.0112775648764, No Iterations 3
smoothSolver:  Solving for Uz, Initial residual = 0.141224985506, Final residual = 0.00598817042388, No Iterations 3
GAMG:  Solving for p, Initial residual = 0.116716850551, Final residual = 0.00658393730311, No Iterations 2
time step continuity errors : sum local = 6.39653130044e-05, global = -2.85975094378e-05, cumulative = 0.000423213329939
smoothSolver:  Solving for epsilon, Initial residual = 0.0131616467917, Final residual = 0.000581040389347, No Iterations 3
smoothSolver:  Solving for k, Initial residual = 0.0109022518068, Final residual = 0.00037142822866, No Iterations 3
ExecutionTime = 0.6 s  ClockTime = 1 s

Time = 19

smoothSolver:  Solving for Ux, Initial residual = 0.0447060043305, Final residual = 0.00202084330147, No Iterations 3
smoothSolver:  Solving for Uy, Initial residual = 0.287817766483, Final residual = 0.0124416961202, No Iterations 3
smoothSolver:  Solving for Uz, Initial residual = 0.0944890993124, Final residual = 0.00439123499093, No Iterations 3
GAMG:  Solving for p, Initial residual = 0.128603686105, Final residual = 0.0107444697015, No Iterations 2
time step continuity errors : sum local = 8.15721862869e-05, global = -2.90431572013e-05, cumulative = 0.000394170172738
smoothSolver:  Solving for epsilon, Initial residual = 0.014069258109, Final residual = 0.000666259315356, No Iterations 3
smoothSolver:  Solving for k, Initial residual = 0.0108155689734, Final residual = 0.000426670584217, No Iterations 3
ExecutionTime = 0.63 s  ClockTime = 1 s

Time = 20

smoothSolver:  Solving for Ux, Initial residual = 0.0181070886559, Final residual = 0.000699399240166, No Iterations 3
smoothSolver:  Solving for Uy, Initial residual = 0.445227836578, Final residual = 0.0223008209025, No Iterations 3
smoothSolver:  Solving for Uz, Initial residual = 0.0449953363718, Final residual = 0.00216258518145, No Iterations 3
GAMG:  Solving for p, Initial residual = 0.202428046352, Final residual = 0.0181645505414, No Iterations 2
time step continuity errors : sum local = 6.42226207052e-05, global = -3.32137563612e-05, cumulative = 0.000360956416377
smoothSolver:  Solving for epsilon, Initial residual = 0.0121141462957, Final residual = 0.000563573859941, No Iterations 3
smoothSolver:  Solving for k, Initial residual = 0.00912935100303, Final residual = 0.000350598544472, No Iterations 3
ExecutionTime = 0.66 s  ClockTime = 1 s

Time = 21

smoothSolver:  Solving for Ux, Initial residual = 0.0293736771852, Final residual = 0.00104473975136, No Iterations 3
smoothSolver:  Solving for Uy, Initial residual = 0.287009204677, Final residual = 0.0142055585363, No Iterations 3
smoothSolver:  Solving for Uz, Initial residual = 0.0314725407569, Final residual = 0.0015162429194, No Iterations 3
GAMG:  Solving for p, Initial residual = 0.0784579118662, Final residual = 0.00399088206459, No Iterations 2
time step continuity errors : sum local = 3.5586250862e-05, global = 1.0123084423e-05, cumulative = 0.0003710795008
smoothSolver:  Solving for epsilon, Initial residual = 0.00887359831324, Final residual = 0.000380475229088, No Iterations 3
smoothSolver:  Solving for k, Initial residual = 0.00697219338417, Final residual = 0.000682020094154, No Iterations 2
ExecutionTime = 0.69 s  ClockTime = 1 s

Time = 22

smoothSolver:  Solving for Ux, Initial residual = 0.0258705365024, Final residual = 0.00110980225358, No Iterations 3
smoothSolver:  Solving for Uy, Initial residual = 0.25987038513, Final residual = 0.011835221663, No Iterations 3
smoothSolver:  Solving for Uz, Initial residual = 0.0519466928786, Final residual = 0.00222458421745, No Iterations 3
GAMG:  Solving for p, Initial residual = 0.0741961282519, Final residual = 0.00584372862762, No Iterations 2
time step continuity errors : sum local = 4.82517559773e-05, global = 1.54069302852e-05, cumulative = 0.000386486431085
smoothSolver:  Solving for epsilon, Initial residual = 0.00672770353456, Final residual = 0.000251245594044, No Iterations 3
smoothSolver:  Solving for k, Initial residual = 0.00573718567883, Final residual = 0.000526810157588, No Iterations 2
ExecutionTime = 0.72 s  ClockTime = 1 s

Time = 23

smoothSolver:  Solving for Ux, Initial residual = 0.0110761477363, Final residual = 0.000595480434695, No Iterations 3
smoothSolver:  Solving for Uy, Initial residual = 0.381990248041, Final residual = 0.0203385325683, No Iterations 3
smoothSolver:  Solving for Uz, Initial residual = 0.0591890185554, Final residual = 0.00230188965486, No Iterations 3
GAMG:  Solving for p, Initial residual = 0.13772949474, Final residual = 0.0120489069558, No Iterations 2
time step continuity errors : sum local = 4.51129193923e-05, global = 2.11952609724e-05, cumulative = 0.000407681692058
smoothSolver:  Solving for epsilon, Initial residual = 0.0060206651777, Final residual = 0.000236950348223, No Iterations 3
smoothSolver:  Solving for k, Initial residual = 0.00529861829667, Final residual = 0.000515978213116, No Iterations 2
ExecutionTime = 0.75 s  ClockTime = 1 s

Time = 24

smoothSolver:  Solving for Ux, Initial residual = 0.0148861059015, Final residual = 0.000646324927959, No Iterations 3
smoothSolver:  Solving for Uy, Initial residual = 0.282319477107, Final residual = 0.0146044284305, No Iterations 3
smoothSolver:  Solving for Uz, Initial residual = 0.0542821851506, Final residual = 0.00228124800288, No Iterations 3
GAMG:  Solving for p, Initial residual = 0.380010780599, Final residual = 0.0200904395524, No Iterations 2
time step continuity errors : sum local = 2.62099081306e-05, global = 8.89636659238e-07, cumulative = 0.000408571328717
smoothSolver:  Solving for epsilon, Initial residual = 0.00607893696978, Final residual = 0.000280187326221, No Iterations 3
smoothSolver:  Solving for k, Initial residual = 0.00524079464718, Final residual = 0.000184293311029, No Iterations 3
ExecutionTime = 0.78 s  ClockTime = 1 s

Time = 25

smoothSolver:  Solving for Ux, Initial residual = 0.0141211780339, Final residual = 0.00072791773977, No Iterations 3
smoothSolver:  Solving for Uy, Initial residual = 0.222190438035, Final residual = 0.0100660913952, No Iterations 3
smoothSolver:  Solving for Uz, Initial residual = 0.0511456375877, Final residual = 0.00243675573482, No Iterations 3
GAMG:  Solving for p, Initial residual = 0.317136841522, Final residual = 0.0192121691854, No Iterations 2
time step continuity errors : sum local = 2.51639376402e-05, global = -1.31901821077e-05, cumulative = 0.000395381146609
smoothSolver:  Solving for epsilon, Initial residual = 0.00625354600591, Final residual = 0.000304224549422, No Iterations 3
smoothSolver:  Solving for k, Initial residual = 0.0051075824231, Final residual = 0.000191481342282, No Iterations 3
ExecutionTime = 0.82 s  ClockTime = 1 s

Time = 26

smoothSolver:  Solving for Ux, Initial residual = 0.00823999042432, Final residual = 0.000414671020709, No Iterations 3
smoothSolver:  Solving for Uy, Initial residual = 0.352414244257, Final residual = 0.0192909850225, No Iterations 3
smoothSolver:  Solving for Uz, Initial residual = 0.0326327161618, Final residual = 0.0016150081104, No Iterations 3
GAMG:  Solving for p, Initial residual = 0.137403953101, Final residual = 0.0104097503618, No Iterations 2
time step continuity errors : sum local = 2.59639724822e-05, global = -1.1065345489e-05, cumulative = 0.00038431580112
smoothSolver:  Solving for epsilon, Initial residual = 0.00568022451329, Final residual = 0.000275254236435, No Iterations 3
smoothSolver:  Solving for k, Initial residual = 0.00458696920309, Final residual = 0.000178969074926, No Iterations 3
ExecutionTime = 0.84 s  ClockTime = 1 s

Time = 27

smoothSolver:  Solving for Ux, Initial residual = 0.00881008348763, Final residual = 0.000309012558034, No Iterations 3
smoothSolver:  Solving for Uy, Initial residual = 0.290307049391, Final residual = 0.0164006518124, No Iterations 3
smoothSolver:  Solving for Uz, Initial residual = 0.0154784524053, Final residual = 0.000675354802959, No Iterations 3
GAMG:  Solving for p, Initial residual = 0.0734725711333, Final residual = 0.00409096463644, No Iterations 2
time step continuity errors : sum local = 1.79020825794e-05, global = -2.12471767205e-06, cumulative = 0.000382191083448
smoothSolver:  Solving for epsilon, Initial residual = 0.00460040836742, Final residual = 0.000212157426039, No Iterations 3
smoothSolver:  Solving for k, Initial residual = 0.00386853148851, Final residual = 0.00015654010255, No Iterations 3
ExecutionTime = 0.88 s  ClockTime = 1 s

Time = 28

smoothSolver:  Solving for Ux, Initial residual = 0.00900684883786, Final residual = 0.000396436366789, No Iterations 3
smoothSolver:  Solving for Uy, Initial residual = 0.208327509291, Final residual = 0.0100112384347, No Iterations 3
smoothSolver:  Solving for Uz, Initial residual = 0.0211510009103, Final residual = 0.000899524268425, No Iterations 3
GAMG:  Solving for p, Initial residual = 0.060697470733, Final residual = 0.00367775726684, No Iterations 2
time step continuity errors : sum local = 1.66695797205e-05, global = 6.13917333272e-06, cumulative = 0.000388330256781
smoothSolver:  Solving for epsilon, Initial residual = 0.00363771399884, Final residual = 0.000156130809477, No Iterations 3
smoothSolver:  Solving for k, Initial residual = 0.00356374865689, Final residual = 0.000160142777822, No Iterations 3
ExecutionTime = 0.91 s  ClockTime = 1 s

Time = 29

smoothSolver:  Solving for Ux, Initial residual = 0.00547030489033, Final residual = 0.000294736188703, No Iterations 3
smoothSolver:  Solving for Uy, Initial residual = 0.300340534164, Final residual = 0.0166663319926, No Iterations 3
smoothSolver:  Solving for Uz, Initial residual = 0.0278304483751, Final residual = 0.00111284573442, No Iterations 3
GAMG:  Solving for p, Initial residual = 0.0730971132146, Final residual = 0.00385845991667, No Iterations 2
time step continuity errors : sum local = 1.31469483347e-05, global = 2.52499470487e-06, cumulative = 0.000390855251486
smoothSolver:  Solving for epsilon, Initial residual = 0.00313854975524, Final residual = 0.000131222840411, No Iterations 3
smoothSolver:  Solving for k, Initial residual = 0.00336604909095, Final residual = 0.000158585391346, No Iterations 3
ExecutionTime = 0.94 s  ClockTime = 1 s

Time = 30

smoothSolver:  Solving for Ux, Initial residual = 0.0046248865864, Final residual = 0.000227375300165, No Iterations 3
smoothSolver:  Solving for Uy, Initial residual = 0.282463196525, Final residual = 0.0159397975191, No Iterations 3
smoothSolver:  Solving for Uz, Initial residual = 0.0261631733868, Final residual = 0.00108572785593, No Iterations 3
GAMG:  Solving for p, Initial residual = 0.106062127952, Final residual = 0.00599093941156, No Iterations 2
time step continuity errors : sum local = 1.3467797226e-05, global = -2.853098474e-07, cumulative = 0.000390569941638
smoothSolver:  Solving for epsilon, Initial residual = 0.00294181229617, Final residual = 0.000131058463698, No Iterations 3
smoothSolver:  Solving for k, Initial residual = 0.00311658438417, Final residual = 0.000147991636672, No Iterations 3
ExecutionTime = 0.97 s  ClockTime = 1 s

Time = 31

smoothSolver:  Solving for Ux, Initial residual = 0.00467613105095, Final residual = 0.000236077203389, No Iterations 3
smoothSolver:  Solving for Uy, Initial residual = 0.19822196521, Final residual = 0.00929198364405, No Iterations 3
smoothSolver:  Solving for Uz, Initial residual = 0.0233348813869, Final residual = 0.00108637527921, No Iterations 3
GAMG:  Solving for p, Initial residual = 0.0984032577136, Final residual = 0.0058727784213, No Iterations 2
time step continuity errors : sum local = 1.16930659432e-05, global = -3.46918285714e-06, cumulative = 0.000387100758781
smoothSolver:  Solving for epsilon, Initial residual = 0.00287141884433, Final residual = 0.00013282202604, No Iterations 3
smoothSolver:  Solving for k, Initial residual = 0.00289182580327, Final residual = 0.00014297507116, No Iterations 3
ExecutionTime = 1 s  ClockTime = 1 s

Time = 32

smoothSolver:  Solving for Ux, Initial residual = 0.00376017669491, Final residual = 0.000183256496218, No Iterations 3
smoothSolver:  Solving for Uy, Initial residual = 0.267290678357, Final residual = 0.014669833283, No Iterations 3
smoothSolver:  Solving for Uz, Initial residual = 0.0196757911016, Final residual = 0.000963222088516, No Iterations 3
GAMG:  Solving for p, Initial residual = 0.0637897462517, Final residual = 0.00269946098673, No Iterations 2
time step continuity errors : sum local = 6.78027468487e-06, global = -5.41214423376e-07, cumulative = 0.000386559544358
smoothSolver:  Solving for epsilon, Initial residual = 0.00263626491589, Final residual = 0.000121277288053, No Iterations 3
smoothSolver:  Solving for k, Initial residual = 0.00275530430161, Final residual = 0.000147264935818, No Iterations 3
ExecutionTime = 1.04 s  ClockTime = 1 s

Time = 33

smoothSolver:  Solving for Ux, Initial residual = 0.00348212493149, Final residual = 0.00013952260411, No Iterations 3
smoothSolver:  Solving for Uy, Initial residual = 0.257917424697, Final residual = 0.0154283673181, No Iterations 3
smoothSolver:  Solving for Uz, Initial residual = 0.0117463810321, Final residual = 0.000526319485759, No Iterations 3
GAMG:  Solving for p, Initial residual = 0.0466189912358, Final residual = 0.00324050737519, No Iterations 2
time step continuity errors : sum local = 1.02819242995e-05, global = 2.08260772635e-06, cumulative = 0.000388642152084
smoothSolver:  Solving for epsilon, Initial residual = 0.00223086741151, Final residual = 9.76058992766e-05, No Iterations 3
smoothSolver:  Solving for k, Initial residual = 0.00273257881065, Final residual = 0.00015568965083, No Iterations 3
ExecutionTime = 1.07 s  ClockTime = 1 s

Time = 34

smoothSolver:  Solving for Ux, Initial residual = 0.00347420453222, Final residual = 0.000147021941012, No Iterations 3
smoothSolver:  Solving for Uy, Initial residual = 0.183187947666, Final residual = 0.0097588602674, No Iterations 3
smoothSolver:  Solving for Uz, Initial residual = 0.00950763755053, Final residual = 0.000381122312497, No Iterations 3
GAMG:  Solving for p, Initial residual = 0.0384505172307, Final residual = 0.00189918319033, No Iterations 2
time step continuity errors : sum local = 6.3182423731e-06, global = 1.80849413944e-06, cumulative = 0.000390450646223
smoothSolver:  Solving for epsilon, Initial residual = 0.0018272070895, Final residual = 7.422886453e-05, No Iterations 3
smoothSolver:  Solving for k, Initial residual = 0.00268879490844, Final residual = 0.000160945739254, No Iterations 3
ExecutionTime = 1.1 s  ClockTime = 1 s

Time = 35

smoothSolver:  Solving for Ux, Initial residual = 0.00263137992158, Final residual = 0.000132419639977, No Iterations 3
smoothSolver:  Solving for Uy, Initial residual = 0.21431274748, Final residual = 0.0116324487358, No Iterations 3
smoothSolver:  Solving for Uz, Initial residual = 0.0130444835261, Final residual = 0.000528689359149, No Iterations 3
GAMG:  Solving for p, Initial residual = 0.0378105432492, Final residual = 0.00166235688115, No Iterations 2
time step continuity errors : sum local = 5.00553668937e-06, global = 1.52298422109e-07, cumulative = 0.000390602944646
smoothSolver:  Solving for epsilon, Initial residual = 0.00156322585167, Final residual = 6.1102641891e-05, No Iterations 3
smoothSolver:  Solving for k, Initial residual = 0.00257729780752, Final residual = 0.000159640117396, No Iterations 3
ExecutionTime = 1.13 s  ClockTime = 1 s

Time = 36

smoothSolver:  Solving for Ux, Initial residual = 0.00189211775153, Final residual = 9.80275675813e-05, No Iterations 3
smoothSolver:  Solving for Uy, Initial residual = 0.218140041484, Final residual = 0.0127644652304, No Iterations 3
smoothSolver:  Solving for Uz, Initial residual = 0.0136656645536, Final residual = 0.00056587925091, No Iterations 3
GAMG:  Solving for p, Initial residual = 0.0426705679233, Final residual = 0.0034611340173, No Iterations 2
time step continuity errors : sum local = 8.96625554788e-06, global = -1.72087578055e-06, cumulative = 0.000388882068865
smoothSolver:  Solving for epsilon, Initial residual = 0.00143096736421, Final residual = 5.72374324458e-05, No Iterations 3
smoothSolver:  Solving for k, Initial residual = 0.00242910357494, Final residual = 0.000154211530848, No Iterations 3
ExecutionTime = 1.16 s  ClockTime = 2 s

Time = 37

smoothSolver:  Solving for Ux, Initial residual = 0.00184145171803, Final residual = 8.62226594604e-05, No Iterations 3
smoothSolver:  Solving for Uy, Initial residual = 0.165033219253, Final residual = 0.0086376580948, No Iterations 3
smoothSolver:  Solving for Uz, Initial residual = 0.0118069298184, Final residual = 0.000519043714269, No Iterations 3
GAMG:  Solving for p, Initial residual = 0.0387768785616, Final residual = 0.0021558740806, No Iterations 2
time step continuity errors : sum local = 5.24522610054e-06, global = -1.87961680591e-06, cumulative = 0.000387002452059
smoothSolver:  Solving for epsilon, Initial residual = 0.00135795400784, Final residual = 5.6039054021e-05, No Iterations 3
smoothSolver:  Solving for k, Initial residual = 0.00229300159276, Final residual = 0.000148849338899, No Iterations 3
ExecutionTime = 1.19 s  ClockTime = 2 s

Time = 38

smoothSolver:  Solving for Ux, Initial residual = 0.00176273349335, Final residual = 8.04209466503e-05, No Iterations 3
smoothSolver:  Solving for Uy, Initial residual = 0.176749445965, Final residual = 0.00911193450833, No Iterations 3
smoothSolver:  Solving for Uz, Initial residual = 0.0102259127196, Final residual = 0.000479871517163, No Iterations 3
GAMG:  Solving for p, Initial residual = 0.028152725829, Final residual = 0.0012988426552, No Iterations 2
time step continuity errors : sum local = 3.31322191067e-06, global = -1.70030735363e-06, cumulative = 0.000385302144706
smoothSolver:  Solving for epsilon, Initial residual = 0.00125998232466, Final residual = 5.20508779972e-05, No Iterations 3
smoothSolver:  Solving for k, Initial residual = 0.00220214873903, Final residual = 0.000146628716381, No Iterations 3
ExecutionTime = 1.22 s  ClockTime = 2 s

Time = 39

smoothSolver:  Solving for Ux, Initial residual = 0.00160149672183, Final residual = 6.84264760502e-05, No Iterations 3
smoothSolver:  Solving for Uy, Initial residual = 0.181716534097, Final residual = 0.0108054809712, No Iterations 3
smoothSolver:  Solving for Uz, Initial residual = 0.0078838473471, Final residual = 0.000361152557961, No Iterations 3
GAMG:  Solving for p, Initial residual = 0.0230751017878, Final residual = 0.00164141546713, No Iterations 2
time step continuity errors : sum local = 4.5719630358e-06, global = 1.07031102825e-06, cumulative = 0.000386372455734
smoothSolver:  Solving for epsilon, Initial residual = 0.00113134372534, Final residual = 4.50338117826e-05, No Iterations 3
smoothSolver:  Solving for k, Initial residual = 0.00213923930762, Final residual = 0.00014638014756, No Iterations 3
ExecutionTime = 1.26 s  ClockTime = 2 s

Time = 40

smoothSolver:  Solving for Ux, Initial residual = 0.0015607650246, Final residual = 6.76160749068e-05, No Iterations 3
smoothSolver:  Solving for Uy, Initial residual = 0.146655189681, Final residual = 0.00844273398648, No Iterations 3
smoothSolver:  Solving for Uz, Initial residual = 0.005649201142, Final residual = 0.000225020768591, No Iterations 3
GAMG:  Solving for p, Initial residual = 0.0204978735373, Final residual = 0.0013524999525, No Iterations 2
time step continuity errors : sum local = 3.91879006631e-06, global = 3.60384069161e-07, cumulative = 0.000386732839803
smoothSolver:  Solving for epsilon, Initial residual = 0.00103357952143, Final residual = 4.20078231143e-05, No Iterations 3
smoothSolver:  Solving for k, Initial residual = 0.00208062394342, Final residual = 0.00014632808248, No Iterations 3
ExecutionTime = 1.29 s  ClockTime = 2 s

Time = 41

smoothSolver:  Solving for Ux, Initial residual = 0.00132425029629, Final residual = 6.33621519375e-05, No Iterations 3
smoothSolver:  Solving for Uy, Initial residual = 0.132404913424, Final residual = 0.00697080581097, No Iterations 3
smoothSolver:  Solving for Uz, Initial residual = 0.00642932963214, Final residual = 0.000263218994303, No Iterations 3
GAMG:  Solving for p, Initial residual = 0.0182369086779, Final residual = 0.000792070446966, No Iterations 2
time step continuity errors : sum local = 2.23612995322e-06, global = 9.66509482464e-07, cumulative = 0.000387699349285
smoothSolver:  Solving for epsilon, Initial residual = 0.000968464454643, Final residual = 4.21929169419e-05, No Iterations 3
smoothSolver:  Solving for k, Initial residual = 0.00200162598603, Final residual = 0.000143939967606, No Iterations 3
ExecutionTime = 1.32 s  ClockTime = 2 s

Time = 42

smoothSolver:  Solving for Ux, Initial residual = 0.00101863186923, Final residual = 5.19116708032e-05, No Iterations 3
smoothSolver:  Solving for Uy, Initial residual = 0.134864179864, Final residual = 0.00785123518882, No Iterations 3
smoothSolver:  Solving for Uz, Initial residual = 0.00745738163862, Final residual = 0.000311308428237, No Iterations 3
GAMG:  Solving for p, Initial residual = 0.0180695362871, Final residual = 0.00117035150116, No Iterations 2
time step continuity errors : sum local = 3.13231449397e-06, global = -6.84310304201e-07, cumulative = 0.000387015038981
smoothSolver:  Solving for epsilon, Initial residual = 0.000928171803306, Final residual = 4.28420439519e-05, No Iterations 3
smoothSolver:  Solving for k, Initial residual = 0.00191063610315, Final residual = 0.000139914618154, No Iterations 3
ExecutionTime = 1.35 s  ClockTime = 2 s

Time = 43

smoothSolver:  Solving for Ux, Initial residual = 0.000891567140922, Final residual = 4.29428944241e-05, No Iterations 3
smoothSolver:  Solving for Uy, Initial residual = 0.120528634477, Final residual = 0.00688715020914, No Iterations 3
smoothSolver:  Solving for Uz, Initial residual = 0.00695083086522, Final residual = 0.000296777752571, No Iterations 3
GAMG:  Solving for p, Initial residual = 0.0177426757169, Final residual = 0.00117118836461, No Iterations 2
time step continuity errors : sum local = 3.02182247542e-06, global = -8.32712548185e-08, cumulative = 0.000386931767726
smoothSolver:  Solving for epsilon, Initial residual = 0.000901229022565, Final residual = 4.32340890183e-05, No Iterations 3
smoothSolver:  Solving for k, Initial residual = 0.00181916041821, Final residual = 0.000135085203049, No Iterations 3
ExecutionTime = 1.38 s  ClockTime = 2 s

Time = 44

smoothSolver:  Solving for Ux, Initial residual = 0.000865555749422, Final residual = 3.93465105718e-05, No Iterations 3
smoothSolver:  Solving for Uy, Initial residual = 0.107296910685, Final residual = 0.00534303058637, No Iterations 3
smoothSolver:  Solving for Uz, Initial residual = 0.00574639562671, Final residual = 0.000252964992721, No Iterations 3
GAMG:  Solving for p, Initial residual = 0.0140254901148, Final residual = 0.000811502899841, No Iterations 2
time step continuity errors : sum local = 2.10133820593e-06, global = -1.04509148789e-06, cumulative = 0.000385886676238
smoothSolver:  Solving for epsilon, Initial residual = 0.000885520020738, Final residual = 4.42052589469e-05, No Iterations 3
smoothSolver:  Solving for k, Initial residual = 0.00174471047739, Final residual = 0.000131078682212, No Iterations 3
ExecutionTime = 1.41 s  ClockTime = 2 s

Time = 45

smoothSolver:  Solving for Ux, Initial residual = 0.000848725741306, Final residual = 3.89129648143e-05, No Iterations 3
smoothSolver:  Solving for Uy, Initial residual = 0.118274690833, Final residual = 0.0064825699788, No Iterations 3
smoothSolver:  Solving for Uz, Initial residual = 0.00491175742831, Final residual = 0.000220907307936, No Iterations 3
GAMG:  Solving for p, Initial residual = 0.0105772331625, Final residual = 0.000329925315941, No Iterations 2
time step continuity errors : sum local = 8.74206611666e-07, global = -3.6514863729e-07, cumulative = 0.000385521527601
smoothSolver:  Solving for epsilon, Initial residual = 0.000875395891845, Final residual = 4.55545178626e-05, No Iterations 3
smoothSolver:  Solving for k, Initial residual = 0.00168169448036, Final residual = 0.000127836547243, No Iterations 3
ExecutionTime = 1.44 s  ClockTime = 2 s

Time = 46

smoothSolver:  Solving for Ux, Initial residual = 0.000802546441023, Final residual = 3.70095318957e-05, No Iterations 3
smoothSolver:  Solving for Uy, Initial residual = 0.114073547565, Final residual = 0.00685978404003, No Iterations 3
smoothSolver:  Solving for Uz, Initial residual = 0.00402250935315, Final residual = 0.000170392478668, No Iterations 3
GAMG:  Solving for p, Initial residual = 0.0097782526811, Final residual = 0.000670560424357, No Iterations 2
time step continuity errors : sum local = 1.81810155663e-06, global = 2.79493452004e-07, cumulative = 0.000385801021053
smoothSolver:  Solving for epsilon, Initial residual = 0.000859503301611, Final residual = 4.66068597708e-05, No Iterations 3
smoothSolver:  Solving for k, Initial residual = 0.00161987573055, Final residual = 0.000124818575363, No Iterations 3
ExecutionTime = 1.47 s  ClockTime = 2 s

Time = 47

smoothSolver:  Solving for Ux, Initial residual = 0.000720345452136, Final residual = 3.42942217504e-05, No Iterations 3
smoothSolver:  Solving for Uy, Initial residual = 0.0994837615952, Final residual = 0.00565974048849, No Iterations 3
smoothSolver:  Solving for Uz, Initial residual = 0.00373497757659, Final residual = 0.000152066974274, No Iterations 3
GAMG:  Solving for p, Initial residual = 0.00928919265381, Final residual = 0.000543560383603, No Iterations 2
time step continuity errors : sum local = 1.47664156911e-06, global = 3.47222339748e-07, cumulative = 0.000386148243393
smoothSolver:  Solving for epsilon, Initial residual = 0.000834779398937, Final residual = 4.6971844065e-05, No Iterations 3
smoothSolver:  Solving for k, Initial residual = 0.0015551786228, Final residual = 0.000121422897696, No Iterations 3
ExecutionTime = 1.5 s  ClockTime = 2 s

Time = 48

smoothSolver:  Solving for Ux, Initial residual = 0.000611827909574, Final residual = 3.04110468509e-05, No Iterations 3
smoothSolver:  Solving for Uy, Initial residual = 0.0888596402409, Final residual = 0.00488376406874, No Iterations 3
smoothSolver:  Solving for Uz, Initial residual = 0.00415527949385, Final residual = 0.000174090507167, No Iterations 3
GAMG:  Solving for p, Initial residual = 0.00860586860439, Final residual = 0.000303386922461, No Iterations 2
time step continuity errors : sum local = 8.12816080941e-07, global = 9.59149349873e-08, cumulative = 0.000386244158328
smoothSolver:  Solving for epsilon, Initial residual = 0.000805263581687, Final residual = 4.66350348441e-05, No Iterations 3
smoothSolver:  Solving for k, Initial residual = 0.00148696532735, Final residual = 0.000117368724055, No Iterations 3
ExecutionTime = 1.54 s  ClockTime = 2 s

Time = 49

smoothSolver:  Solving for Ux, Initial residual = 0.00052019954817, Final residual = 2.5484404079e-05, No Iterations 3
smoothSolver:  Solving for Uy, Initial residual = 0.087107915189, Final residual = 0.00519504686792, No Iterations 3
smoothSolver:  Solving for Uz, Initial residual = 0.00423125130764, Final residual = 0.000178842973172, No Iterations 3
GAMG:  Solving for p, Initial residual = 0.00805716223311, Final residual = 0.000481211758291, No Iterations 2
time step continuity errors : sum local = 1.26732628292e-06, global = -6.04298186187e-08, cumulative = 0.000386183728509
smoothSolver:  Solving for epsilon, Initial residual = 0.000779187500499, Final residual = 4.61001630985e-05, No Iterations 3
smoothSolver:  Solving for k, Initial residual = 0.0014203169517, Final residual = 0.000113035265721, No Iterations 3
ExecutionTime = 1.57 s  ClockTime = 2 s

Time = 50

smoothSolver:  Solving for Ux, Initial residual = 0.000481054446698, Final residual = 2.25975962111e-05, No Iterations 3
smoothSolver:  Solving for Uy, Initial residual = 0.0797648544921, Final residual = 0.00439257646792, No Iterations 3
smoothSolver:  Solving for Uz, Initial residual = 0.00374242139961, Final residual = 0.000159554694283, No Iterations 3
GAMG:  Solving for p, Initial residual = 0.00722987127961, Final residual = 0.000437652860819, No Iterations 2
time step continuity errors : sum local = 1.14509192162e-06, global = -3.30949751429e-07, cumulative = 0.000385852778758
smoothSolver:  Solving for epsilon, Initial residual = 0.000757944197422, Final residual = 4.55909344731e-05, No Iterations 3
smoothSolver:  Solving for k, Initial residual = 0.00135976917225, Final residual = 0.000108787365645, No Iterations 3
ExecutionTime = 1.6 s  ClockTime = 2 s

Time = 51

smoothSolver:  Solving for Ux, Initial residual = 0.00047208570832, Final residual = 2.23000394133e-05, No Iterations 3
smoothSolver:  Solving for Uy, Initial residual = 0.0796416563968, Final residual = 0.00408206863571, No Iterations 3
smoothSolver:  Solving for Uz, Initial residual = 0.00314185065751, Final residual = 0.000136091260187, No Iterations 3
GAMG:  Solving for p, Initial residual = 0.00590056035646, Final residual = 0.000313014158083, No Iterations 2
time step continuity errors : sum local = 8.21988901669e-07, global = -4.58178267185e-07, cumulative = 0.000385394600491
smoothSolver:  Solving for epsilon, Initial residual = 0.000739245304268, Final residual = 4.50795989517e-05, No Iterations 3
smoothSolver:  Solving for k, Initial residual = 0.00130326638903, Final residual = 0.000104844409183, No Iterations 3
ExecutionTime = 1.63 s  ClockTime = 2 s

Time = 52

smoothSolver:  Solving for Ux, Initial residual = 0.000452055439473, Final residual = 2.17206331979e-05, No Iterations 3
smoothSolver:  Solving for Uy, Initial residual = 0.0869703911983, Final residual = 0.00510683389071, No Iterations 3
smoothSolver:  Solving for Uz, Initial residual = 0.00277017668088, Final residual = 0.000120425276969, No Iterations 3
GAMG:  Solving for p, Initial residual = 0.00512681735627, Final residual = 0.000150522845926, No Iterations 2
time step continuity errors : sum local = 3.98730156437e-07, global = -1.52920153134e-07, cumulative = 0.000385241680338
smoothSolver:  Solving for epsilon, Initial residual = 0.000717465000518, Final residual = 4.43962027784e-05, No Iterations 3
smoothSolver:  Solving for k, Initial residual = 0.0012485530162, Final residual = 0.000101004535887, No Iterations 3
ExecutionTime = 1.67 s  ClockTime = 2 s

Time = 53

smoothSolver:  Solving for Ux, Initial residual = 0.000417082651685, Final residual = 2.02742252852e-05, No Iterations 3
smoothSolver:  Solving for Uy, Initial residual = 0.0828290890741, Final residual = 0.0050680054372, No Iterations 3
smoothSolver:  Solving for Uz, Initial residual = 0.0024933936133, Final residual = 0.000104179088806, No Iterations 3
GAMG:  Solving for p, Initial residual = 0.00488209459045, Final residual = 0.00026653383233, No Iterations 2
time step continuity errors : sum local = 7.10162079995e-07, global = -6.30078724091e-08, cumulative = 0.000385178672465
smoothSolver:  Solving for epsilon, Initial residual = 0.000691039603192, Final residual = 4.34661483591e-05, No Iterations 3
smoothSolver:  Solving for k, Initial residual = 0.00119377603383, Final residual = 9.72219171696e-05, No Iterations 3
ExecutionTime = 1.7 s  ClockTime = 2 s

Time = 54

smoothSolver:  Solving for Ux, Initial residual = 0.000372548111791, Final residual = 1.83424173993e-05, No Iterations 3
smoothSolver:  Solving for Uy, Initial residual = 0.072220956036, Final residual = 0.00419079715502, No Iterations 3
smoothSolver:  Solving for Uz, Initial residual = 0.00247481026283, Final residual = 0.000103580877961, No Iterations 3
GAMG:  Solving for p, Initial residual = 0.0047263017667, Final residual = 0.000254951977643, No Iterations 2
time step continuity errors : sum local = 6.77728914804e-07, global = 9.29934812693e-08, cumulative = 0.000385271665946
smoothSolver:  Solving for epsilon, Initial residual = 0.000663385989274, Final residual = 4.23306971195e-05, No Iterations 3
smoothSolver:  Solving for k, Initial residual = 0.00113884460267, Final residual = 9.33494311361e-05, No Iterations 3
ExecutionTime = 1.73 s  ClockTime = 2 s

Time = 55

smoothSolver:  Solving for Ux, Initial residual = 0.000325568420268, Final residual = 1.60035481613e-05, No Iterations 3
smoothSolver:  Solving for Uy, Initial residual = 0.0656278351309, Final residual = 0.00378607673232, No Iterations 3
smoothSolver:  Solving for Uz, Initial residual = 0.00255408730325, Final residual = 0.000108150641314, No Iterations 3
GAMG:  Solving for p, Initial residual = 0.0043783552024, Final residual = 0.00020976167428, No Iterations 2
time step continuity errors : sum local = 5.54882958207e-07, global = 4.32969957192e-08, cumulative = 0.000385314962942
smoothSolver:  Solving for epsilon, Initial residual = 0.00063731019533, Final residual = 4.1112720681e-05, No Iterations 3
smoothSolver:  Solving for k, Initial residual = 0.0010852962949, Final residual = 8.94350093659e-05, No Iterations 3
ExecutionTime = 1.76 s  ClockTime = 2 s

Time = 56

smoothSolver:  Solving for Ux, Initial residual = 0.000291303873851, Final residual = 1.39993783147e-05, No Iterations 3
smoothSolver:  Solving for Uy, Initial residual = 0.0672911784778, Final residual = 0.00402105708449, No Iterations 3
smoothSolver:  Solving for Uz, Initial residual = 0.00244113636475, Final residual = 0.00010333037976, No Iterations 3
GAMG:  Solving for p, Initial residual = 0.00394441547544, Final residual = 0.000221459845963, No Iterations 2
time step continuity errors : sum local = 5.83339704252e-07, global = -7.03919291528e-08, cumulative = 0.000385244571013
smoothSolver:  Solving for epsilon, Initial residual = 0.000613801650969, Final residual = 3.99419802338e-05, No Iterations 3
smoothSolver:  Solving for k, Initial residual = 0.00103538222742, Final residual = 8.55753538247e-05, No Iterations 3
ExecutionTime = 1.79 s  ClockTime = 2 s

Time = 57

smoothSolver:  Solving for Ux, Initial residual = 0.000276275210144, Final residual = 1.31811502974e-05, No Iterations 3
smoothSolver:  Solving for Uy, Initial residual = 0.0671055026428, Final residual = 0.00371044121541, No Iterations 3
smoothSolver:  Solving for Uz, Initial residual = 0.00216056103958, Final residual = 9.13928424301e-05, No Iterations 3
GAMG:  Solving for p, Initial residual = 0.00348526666264, Final residual = 0.000176962517968, No Iterations 2
time step continuity errors : sum local = 4.65574311527e-07, global = -1.29352104109e-07, cumulative = 0.000385115218909
smoothSolver:  Solving for epsilon, Initial residual = 0.000592116767327, Final residual = 3.88163840068e-05, No Iterations 3
smoothSolver:  Solving for k, Initial residual = 0.000988595923785, Final residual = 8.18962251862e-05, No Iterations 3
ExecutionTime = 1.83 s  ClockTime = 2 s

Time = 58

smoothSolver:  Solving for Ux, Initial residual = 0.000265558285628, Final residual = 1.29193055481e-05, No Iterations 3
smoothSolver:  Solving for Uy, Initial residual = 0.0712162935709, Final residual = 0.00395727137165, No Iterations 3
smoothSolver:  Solving for Uz, Initial residual = 0.00188610487453, Final residual = 8.04182344727e-05, No Iterations 3
GAMG:  Solving for p, Initial residual = 0.00309287543764, Final residual = 0.000133459359964, No Iterations 2
time step continuity errors : sum local = 3.51926397877e-07, global = -1.52388055954e-07, cumulative = 0.000384962830853
smoothSolver:  Solving for epsilon, Initial residual = 0.00057039545032, Final residual = 3.76265081065e-05, No Iterations 3
smoothSolver:  Solving for k, Initial residual = 0.000943452238216, Final residual = 7.83085679465e-05, No Iterations 3
ExecutionTime = 1.86 s  ClockTime = 2 s

Time = 59

smoothSolver:  Solving for Ux, Initial residual = 0.000249614526374, Final residual = 1.23264346079e-05, No Iterations 3
smoothSolver:  Solving for Uy, Initial residual = 0.0748097200865, Final residual = 0.00453380828848, No Iterations 3
smoothSolver:  Solving for Uz, Initial residual = 0.0017118489964, Final residual = 7.29680868869e-05, No Iterations 3
GAMG:  Solving for p, Initial residual = 0.00291109512076, Final residual = 9.83943096303e-05, No Iterations 2
time step continuity errors : sum local = 2.60165683698e-07, global = -7.31259812571e-09, cumulative = 0.000384955518255
smoothSolver:  Solving for epsilon, Initial residual = 0.000546809599969, Final residual = 3.63319358223e-05, No Iterations 3
smoothSolver:  Solving for k, Initial residual = 0.000899009009596, Final residual = 7.4775959677e-05, No Iterations 3
ExecutionTime = 1.89 s  ClockTime = 2 s

Time = 60

smoothSolver:  Solving for Ux, Initial residual = 0.000229272879266, Final residual = 1.13626757072e-05, No Iterations 3
smoothSolver:  Solving for Uy, Initial residual = 0.0678792474528, Final residual = 0.00414102300846, No Iterations 3
smoothSolver:  Solving for Uz, Initial residual = 0.001612621155, Final residual = 6.8150401894e-05, No Iterations 3
GAMG:  Solving for p, Initial residual = 0.00281632453026, Final residual = 0.000176581916842, No Iterations 2
time step continuity errors : sum local = 4.67312280235e-07, global = -4.66788980937e-08, cumulative = 0.000384908839357
smoothSolver:  Solving for epsilon, Initial residual = 0.000522269683459, Final residual = 3.49721327641e-05, No Iterations 3
smoothSolver:  Solving for k, Initial residual = 0.000855179807124, Final residual = 7.13404786405e-05, No Iterations 3
ExecutionTime = 1.93 s  ClockTime = 2 s

Time = 61

smoothSolver:  Solving for Ux, Initial residual = 0.00020738304975, Final residual = 1.02434662582e-05, No Iterations 3
smoothSolver:  Solving for Uy, Initial residual = 0.0582225538056, Final residual = 0.00342109740474, No Iterations 3
smoothSolver:  Solving for Uz, Initial residual = 0.00157370945395, Final residual = 6.7057450915e-05, No Iterations 3
GAMG:  Solving for p, Initial residual = 0.00273408528831, Final residual = 0.000180505717872, No Iterations 2
time step continuity errors : sum local = 4.77001342617e-07, global = 2.68010321535e-08, cumulative = 0.000384935640389
smoothSolver:  Solving for epsilon, Initial residual = 0.000498353135907, Final residual = 3.35828818148e-05, No Iterations 3
smoothSolver:  Solving for k, Initial residual = 0.000812528092186, Final residual = 6.79805915635e-05, No Iterations 3
ExecutionTime = 1.96 s  ClockTime = 2 s

Time = 62

smoothSolver:  Solving for Ux, Initial residual = 0.000185749698965, Final residual = 9.06767804884e-06, No Iterations 3
smoothSolver:  Solving for Uy, Initial residual = 0.0541532595724, Final residual = 0.00317257515353, No Iterations 3
smoothSolver:  Solving for Uz, Initial residual = 0.00154459876594, Final residual = 6.59509212387e-05, No Iterations 3
GAMG:  Solving for p, Initial residual = 0.0025276702417, Final residual = 0.000147310319737, No Iterations 2
time step continuity errors : sum local = 3.88787873006e-07, global = -3.48804245561e-08, cumulative = 0.000384900759964
smoothSolver:  Solving for epsilon, Initial residual = 0.000476471003563, Final residual = 3.22442078945e-05, No Iterations 3
smoothSolver:  Solving for k, Initial residual = 0.000771818538485, Final residual = 6.47222408154e-05, No Iterations 3
ExecutionTime = 1.99 s  ClockTime = 2 s

Time = 63

smoothSolver:  Solving for Ux, Initial residual = 0.000169309743283, Final residual = 8.18989158878e-06, No Iterations 3
smoothSolver:  Solving for Uy, Initial residual = 0.058017555003, Final residual = 0.00340833320527, No Iterations 3
smoothSolver:  Solving for Uz, Initial residual = 0.00145674399819, Final residual = 6.18805557658e-05, No Iterations 3
GAMG:  Solving for p, Initial residual = 0.0022564762973, Final residual = 0.00011257969824, No Iterations 2
time step continuity errors : sum local = 2.96864940389e-07, global = -2.62828678667e-08, cumulative = 0.000384874477096
smoothSolver:  Solving for epsilon, Initial residual = 0.000456385248157, Final residual = 3.09819669687e-05, No Iterations 3
smoothSolver:  Solving for k, Initial residual = 0.000733438554656, Final residual = 6.1596048504e-05, No Iterations 3
ExecutionTime = 2.02 s  ClockTime = 2 s

Time = 64

smoothSolver:  Solving for Ux, Initial residual = 0.000159389132431, Final residual = 7.76760028389e-06, No Iterations 3
smoothSolver:  Solving for Uy, Initial residual = 0.0607725514024, Final residual = 0.00333820797408, No Iterations 3
smoothSolver:  Solving for Uz, Initial residual = 0.00132095449411, Final residual = 5.5916955076e-05, No Iterations 3
GAMG:  Solving for p, Initial residual = 0.00201048100161, Final residual = 8.8164563494e-05, No Iterations 2
time step continuity errors : sum local = 2.32569027761e-07, global = -2.03569675928e-08, cumulative = 0.000384854120129
smoothSolver:  Solving for epsilon, Initial residual = 0.000437226616579, Final residual = 2.9748215959e-05, No Iterations 3
smoothSolver:  Solving for k, Initial residual = 0.000697596368802, Final residual = 5.86171610746e-05, No Iterations 3
ExecutionTime = 2.05 s  ClockTime = 2 s

Time = 65

smoothSolver:  Solving for Ux, Initial residual = 0.000151284594476, Final residual = 7.47244015467e-06, No Iterations 3
smoothSolver:  Solving for Uy, Initial residual = 0.0637514743686, Final residual = 0.00358521831635, No Iterations 3
smoothSolver:  Solving for Uz, Initial residual = 0.00118018865278, Final residual = 4.99797777241e-05, No Iterations 3
GAMG:  Solving for p, Initial residual = 0.00187090127583, Final residual = 6.65748985508e-05, No Iterations 2
time step continuity errors : sum local = 1.75810172464e-07, global = 8.12141202124e-09, cumulative = 0.000384862241541
smoothSolver:  Solving for epsilon, Initial residual = 0.000417830929475, Final residual = 2.84944944705e-05, No Iterations 3
smoothSolver:  Solving for k, Initial residual = 0.000663075024699, Final residual = 5.57161980521e-05, No Iterations 3
ExecutionTime = 2.08 s  ClockTime = 2 s

Time = 66

smoothSolver:  Solving for Ux, Initial residual = 0.000141996292698, Final residual = 7.07823338963e-06, No Iterations 3
smoothSolver:  Solving for Uy, Initial residual = 0.0637101867243, Final residual = 0.00381490564962, No Iterations 3
smoothSolver:  Solving for Uz, Initial residual = 0.00108139898184, Final residual = 4.59733556785e-05, No Iterations 3
GAMG:  Solving for p, Initial residual = 0.00180909085896, Final residual = 7.48042868291e-05, No Iterations 2
time step continuity errors : sum local = 1.97664781957e-07, global = -1.397575496e-08, cumulative = 0.000384848265786
smoothSolver:  Solving for epsilon, Initial residual = 0.000397826958635, Final residual = 2.72141580037e-05, No Iterations 3
smoothSolver:  Solving for k, Initial residual = 0.000629352402621, Final residual = 5.28664501854e-05, No Iterations 3
ExecutionTime = 2.11 s  ClockTime = 2 s

Time = 67

smoothSolver:  Solving for Ux, Initial residual = 0.000131272657726, Final residual = 6.55993861683e-06, No Iterations 3
smoothSolver:  Solving for Uy, Initial residual = 0.0577603327575, Final residual = 0.00347264361553, No Iterations 3
smoothSolver:  Solving for Uz, Initial residual = 0.00101899967981, Final residual = 4.35901085859e-05, No Iterations 3
GAMG:  Solving for p, Initial residual = 0.00177704366156, Final residual = 9.67742114599e-05, No Iterations 2
time step continuity errors : sum local = 2.55635659218e-07, global = -2.65921073325e-08, cumulative = 0.000384821673679
smoothSolver:  Solving for epsilon, Initial residual = 0.000378058879204, Final residual = 2.59360832683e-05, No Iterations 3
smoothSolver:  Solving for k, Initial residual = 0.000596450444076, Final residual = 5.0104067072e-05, No Iterations 3
ExecutionTime = 2.14 s  ClockTime = 3 s

Time = 68

smoothSolver:  Solving for Ux, Initial residual = 0.000120117655904, Final residual = 5.96548204034e-06, No Iterations 3
smoothSolver:  Solving for Uy, Initial residual = 0.0487472495798, Final residual = 0.00281244492219, No Iterations 3
smoothSolver:  Solving for Uz, Initial residual = 0.00098190746201, Final residual = 4.22732169071e-05, No Iterations 3
GAMG:  Solving for p, Initial residual = 0.00170260993261, Final residual = 9.05640336339e-05, No Iterations 2
time step continuity errors : sum local = 2.39103044269e-07, global = -2.18508660125e-08, cumulative = 0.000384799822813
smoothSolver:  Solving for epsilon, Initial residual = 0.000359442445152, Final residual = 2.47021033391e-05, No Iterations 3
smoothSolver:  Solving for k, Initial residual = 0.000564884564129, Final residual = 4.74592041809e-05, No Iterations 3
ExecutionTime = 2.18 s  ClockTime = 3 s

Time = 69

smoothSolver:  Solving for Ux, Initial residual = 0.00010920241617, Final residual = 5.38387343126e-06, No Iterations 3
smoothSolver:  Solving for Uy, Initial residual = 0.0454259438534, Final residual = 0.00257641676067, No Iterations 3
smoothSolver:  Solving for Uz, Initial residual = 0.00094975973193, Final residual = 4.08432560671e-05, No Iterations 3
GAMG:  Solving for p, Initial residual = 0.00155649052601, Final residual = 7.49570298889e-05, No Iterations 2
time step continuity errors : sum local = 1.97851976452e-07, global = -1.734915832e-08, cumulative = 0.000384782473654
smoothSolver:  Solving for epsilon, Initial residual = 0.000342152510714, Final residual = 2.35443017388e-05, No Iterations 3
smoothSolver:  Solving for k, Initial residual = 0.000535225748009, Final residual = 4.4954488263e-05, No Iterations 3
ExecutionTime = 2.21 s  ClockTime = 3 s

Time = 70

smoothSolver:  Solving for Ux, Initial residual = 9.99280981465e-05, Final residual = 4.91452848615e-06, No Iterations 3
smoothSolver:  Solving for Uy, Initial residual = 0.0484835795556, Final residual = 0.00270734420912, No Iterations 3
smoothSolver:  Solving for Uz, Initial residual = 0.000893158357364, Final residual = 3.81959731614e-05, No Iterations 3
GAMG:  Solving for p, Initial residual = 0.0013993966818, Final residual = 6.73353016725e-05, No Iterations 2
time step continuity errors : sum local = 1.7777938723e-07, global = -3.65847594119e-09, cumulative = 0.000384778815178
smoothSolver:  Solving for epsilon, Initial residual = 0.000325774991189, Final residual = 2.2448306972e-05, No Iterations 3
smoothSolver:  Solving for k, Initial residual = 0.00050698066464, Final residual = 4.25789287475e-05, No Iterations 3
ExecutionTime = 2.25 s  ClockTime = 3 s

Time = 71

smoothSolver:  Solving for Ux, Initial residual = 9.31891011465e-05, Final residual = 4.60417783708e-06, No Iterations 3
smoothSolver:  Solving for Uy, Initial residual = 0.051251792704, Final residual = 0.00271102072093, No Iterations 3
smoothSolver:  Solving for Uz, Initial residual = 0.000813986047191, Final residual = 3.46795372898e-05, No Iterations 3
GAMG:  Solving for p, Initial residual = 0.0012855035866, Final residual = 5.82495258382e-05, No Iterations 2
time step continuity errors : sum local = 1.53861012744e-07, global = 3.65037582401e-09, cumulative = 0.000384782465554
smoothSolver:  Solving for epsilon, Initial residual = 0.000309854856634, Final residual = 2.13669829262e-05, No Iterations 3
smoothSolver:  Solving for k, Initial residual = 0.000479916164272, Final residual = 4.02970560462e-05, No Iterations 3
ExecutionTime = 2.28 s  ClockTime = 3 s

Time = 72

smoothSolver:  Solving for Ux, Initial residual = 8.79911465669e-05, Final residual = 4.38924264073e-06, No Iterations 3
smoothSolver:  Solving for Uy, Initial residual = 0.0516304291903, Final residual = 0.00284182474689, No Iterations 3
smoothSolver:  Solving for Uz, Initial residual = 0.000734453767971, Final residual = 3.12962503558e-05, No Iterations 3
GAMG:  Solving for p, Initial residual = 0.00122304730734, Final residual = 4.86327089546e-05, No Iterations 2
time step continuity errors : sum local = 1.28488615864e-07, global = -6.55986101601e-09, cumulative = 0.000384775905693
smoothSolver:  Solving for epsilon, Initial residual = 0.000294246309556, Final residual = 2.02874515429e-05, No Iterations 3
smoothSolver:  Solving for k, Initial residual = 0.000453909618967, Final residual = 3.81074037918e-05, No Iterations 3
ExecutionTime = 2.31 s  ClockTime = 3 s

Time = 73

smoothSolver:  Solving for Ux, Initial residual = 8.25852225709e-05, Final residual = 4.15003805237e-06, No Iterations 3
smoothSolver:  Solving for Uy, Initial residual = 0.049772528478, Final residual = 0.00287192538714, No Iterations 3
smoothSolver:  Solving for Uz, Initial residual = 0.000676372208755, Final residual = 2.90149261291e-05, No Iterations 3
GAMG:  Solving for p, Initial residual = 0.00118943203255, Final residual = 5.17392007874e-05, No Iterations 2
time step continuity errors : sum local = 1.36683525041e-07, global = -1.61166872588e-08, cumulative = 0.000384759789006
smoothSolver:  Solving for epsilon, Initial residual = 0.000278987687384, Final residual = 1.92250987782e-05, No Iterations 3
smoothSolver:  Solving for k, Initial residual = 0.000429186408088, Final residual = 3.59992096544e-05, No Iterations 3
ExecutionTime = 2.34 s  ClockTime = 3 s

Time = 74

smoothSolver:  Solving for Ux, Initial residual = 7.66999823548e-05, Final residual = 3.86243555283e-06, No Iterations 3
smoothSolver:  Solving for Uy, Initial residual = 0.0447012365162, Final residual = 0.00255861943486, No Iterations 3
smoothSolver:  Solving for Uz, Initial residual = 0.000638362719435, Final residual = 2.76008208468e-05, No Iterations 3
GAMG:  Solving for p, Initial residual = 0.00115472563604, Final residual = 5.57011976974e-05, No Iterations 2
time step continuity errors : sum local = 1.47124777472e-07, global = -1.81221917788e-08, cumulative = 0.000384741666814
smoothSolver:  Solving for epsilon, Initial residual = 0.000264462587847, Final residual = 1.82095616584e-05, No Iterations 3
smoothSolver:  Solving for k, Initial residual = 0.000405858877073, Final residual = 3.39742780638e-05, No Iterations 3
ExecutionTime = 2.37 s  ClockTime = 3 s

Time = 75

smoothSolver:  Solving for Ux, Initial residual = 7.06248147509e-05, Final residual = 3.54401950462e-06, No Iterations 3
smoothSolver:  Solving for Uy, Initial residual = 0.0378237259957, Final residual = 0.00204743916234, No Iterations 3
smoothSolver:  Solving for Uz, Initial residual = 0.000612882364921, Final residual = 2.66226344961e-05, No Iterations 3
GAMG:  Solving for p, Initial residual = 0.00108862495939, Final residual = 5.16408701306e-05, No Iterations 2
time step continuity errors : sum local = 1.36392755745e-07, global = -1.60235690488e-08, cumulative = 0.000384725643245
smoothSolver:  Solving for epsilon, Initial residual = 0.000250893371189, Final residual = 1.72534928169e-05, No Iterations 3
smoothSolver:  Solving for k, Initial residual = 0.000383758052625, Final residual = 3.2045811627e-05, No Iterations 3
ExecutionTime = 2.4 s  ClockTime = 3 s

Time = 76

smoothSolver:  Solving for Ux, Initial residual = 6.4762336044e-05, Final residual = 3.23490832014e-06, No Iterations 3
smoothSolver:  Solving for Uy, Initial residual = 0.036054513641, Final residual = 0.0018618804816, No Iterations 3
smoothSolver:  Solving for Uz, Initial residual = 0.000586301252355, Final residual = 2.54439319521e-05, No Iterations 3
GAMG:  Solving for p, Initial residual = 0.000998087743173, Final residual = 4.61947570317e-05, No Iterations 2
time step continuity errors : sum local = 1.22021645778e-07, global = -9.42750299631e-09, cumulative = 0.000384716215742
smoothSolver:  Solving for epsilon, Initial residual = 0.000238060564986, Final residual = 1.63546422612e-05, No Iterations 3
smoothSolver:  Solving for k, Initial residual = 0.000362724615455, Final residual = 3.02237207367e-05, No Iterations 3
ExecutionTime = 2.43 s  ClockTime = 3 s

Time = 77

smoothSolver:  Solving for Ux, Initial residual = 5.96632628016e-05, Final residual = 2.97716748073e-06, No Iterations 3
smoothSolver:  Solving for Uy, Initial residual = 0.0389452666167, Final residual = 0.00198467491657, No Iterations 3
smoothSolver:  Solving for Uz, Initial residual = 0.000547901289277, Final residual = 2.37025307513e-05, No Iterations 3
GAMG:  Solving for p, Initial residual = 0.000914297627862, Final residual = 4.34574901648e-05, No Iterations 2
time step continuity errors : sum local = 1.14813339003e-07, global = -4.72560525723e-09, cumulative = 0.000384711490137
smoothSolver:  Solving for epsilon, Initial residual = 0.000225734185754, Final residual = 1.54923013884e-05, No Iterations 3
smoothSolver:  Solving for k, Initial residual = 0.000342769166479, Final residual = 2.84945367846e-05, No Iterations 3
ExecutionTime = 2.46 s  ClockTime = 3 s

Time = 78

smoothSolver:  Solving for Ux, Initial residual = 5.55484765965e-05, Final residual = 2.78210430107e-06, No Iterations 3
smoothSolver:  Solving for Uy, Initial residual = 0.04017171299, Final residual = 0.00201703830225, No Iterations 3
smoothSolver:  Solving for Uz, Initial residual = 0.000500905709467, Final residual = 2.16339293371e-05, No Iterations 3
GAMG:  Solving for p, Initial residual = 0.000856215146408, Final residual = 3.8767700384e-05, No Iterations 2
time step continuity errors : sum local = 1.02437072313e-07, global = -6.42610824008e-09, cumulative = 0.000384705064029
smoothSolver:  Solving for epsilon, Initial residual = 0.000213756336656, Final residual = 1.46559849639e-05, No Iterations 3
smoothSolver:  Solving for k, Initial residual = 0.000323669063128, Final residual = 2.68316236879e-05, No Iterations 3
ExecutionTime = 2.49 s  ClockTime = 3 s

Time = 79

smoothSolver:  Solving for Ux, Initial residual = 5.21511122373e-05, Final residual = 2.63065341866e-06, No Iterations 3
smoothSolver:  Solving for Uy, Initial residual = 0.0387716601041, Final residual = 0.00201458077088, No Iterations 3
smoothSolver:  Solving for Uz, Initial residual = 0.000456030229024, Final residual = 1.97434226553e-05, No Iterations 3
GAMG:  Solving for p, Initial residual = 0.000818002243105, Final residual = 3.35473992025e-05, No Iterations 2
time step continuity errors : sum local = 8.86446729151e-08, global = -1.0438568939e-08, cumulative = 0.00038469462546
smoothSolver:  Solving for epsilon, Initial residual = 0.000202193155669, Final residual = 1.38527936664e-05, No Iterations 3
smoothSolver:  Solving for k, Initial residual = 0.000305277717195, Final residual = 2.52509874799e-05, No Iterations 3
ExecutionTime = 2.52 s  ClockTime = 3 s

Time = 80

smoothSolver:  Solving for Ux, Initial residual = 4.88828346885e-05, Final residual = 2.4801624174e-06, No Iterations 3
smoothSolver:  Solving for Uy, Initial residual = 0.0364922948953, Final residual = 0.00194407896867, No Iterations 3
smoothSolver:  Solving for Uz, Initial residual = 0.000421718400446, Final residual = 1.83633984024e-05, No Iterations 3
GAMG:  Solving for p, Initial residual = 0.00078576814398, Final residual = 3.42727338914e-05, No Iterations 2
time step continuity errors : sum local = 9.0556601446e-08, global = -1.22858682262e-08, cumulative = 0.000384682339591
smoothSolver:  Solving for epsilon, Initial residual = 0.000191162180985, Final residual = 1.30803978128e-05, No Iterations 3
smoothSolver:  Solving for k, Initial residual = 0.00028774116543, Final residual = 2.37511227656e-05, No Iterations 3
ExecutionTime = 2.55 s  ClockTime = 3 s

Time = 81

smoothSolver:  Solving for Ux, Initial residual = 4.55622445299e-05, Final residual = 2.31755177387e-06, No Iterations 3
smoothSolver:  Solving for Uy, Initial residual = 0.0334928776844, Final residual = 0.00171628364049, No Iterations 3
smoothSolver:  Solving for Uz, Initial residual = 0.000397640381163, Final residual = 1.74271692546e-05, No Iterations 3
GAMG:  Solving for p, Initial residual = 0.000751087871069, Final residual = 3.51242355305e-05, No Iterations 2
time step continuity errors : sum local = 9.28029615002e-08, global = -1.26093057058e-08, cumulative = 0.000384669730286
smoothSolver:  Solving for epsilon, Initial residual = 0.000180792165805, Final residual = 1.2347018719e-05, No Iterations 3
smoothSolver:  Solving for k, Initial residual = 0.000271311191164, Final residual = 2.23481750939e-05, No Iterations 3
ExecutionTime = 2.59 s  ClockTime = 3 s

Time = 82

smoothSolver:  Solving for Ux, Initial residual = 4.22962443868e-05, Final residual = 2.14640709133e-06, No Iterations 3
smoothSolver:  Solving for Uy, Initial residual = 0.0305692394332, Final residual = 0.00147139529685, No Iterations 3
smoothSolver:  Solving for Uz, Initial residual = 0.000378935138284, Final residual = 1.66727511169e-05, No Iterations 3
GAMG:  Solving for p, Initial residual = 0.000705178159345, Final residual = 3.31193187306e-05, No Iterations 2
time step continuity errors : sum local = 8.75068081639e-08, global = -1.10824996937e-08, cumulative = 0.000384658647786
smoothSolver:  Solving for epsilon, Initial residual = 0.000171107118016, Final residual = 1.16552434298e-05, No Iterations 3
smoothSolver:  Solving for k, Initial residual = 0.000255917932151, Final residual = 2.10424057012e-05, No Iterations 3
ExecutionTime = 2.62 s  ClockTime = 3 s

Time = 83

smoothSolver:  Solving for Ux, Initial residual = 3.92256925981e-05, Final residual = 1.98079165068e-06, No Iterations 3
smoothSolver:  Solving for Uy, Initial residual = 0.0297282728667, Final residual = 0.00138603376113, No Iterations 3
smoothSolver:  Solving for Uz, Initial residual = 0.000359063961397, Final residual = 1.58122543963e-05, No Iterations 3
GAMG:  Solving for p, Initial residual = 0.000652863365639, Final residual = 3.01507761857e-05, No Iterations 2
time step continuity errors : sum local = 7.96679933683e-08, global = -8.59568154976e-09, cumulative = 0.000384650052104
smoothSolver:  Solving for epsilon, Initial residual = 0.000161984533389, Final residual = 1.10036840652e-05, No Iterations 3
smoothSolver:  Solving for k, Initial residual = 0.000241422592911, Final residual = 1.97988344186e-05, No Iterations 3
ExecutionTime = 2.65 s  ClockTime = 3 s

Time = 84

smoothSolver:  Solving for Ux, Initial residual = 3.64265178345e-05, Final residual = 1.83803682377e-06, No Iterations 3
smoothSolver:  Solving for Uy, Initial residual = 0.0310519699135, Final residual = 0.00147887110331, No Iterations 3
smoothSolver:  Solving for Uz, Initial residual = 0.000334574945653, Final residual = 1.47303821715e-05, No Iterations 3
GAMG:  Solving for p, Initial residual = 0.000606380637271, Final residual = 2.75026371562e-05, No Iterations 2
time step continuity errors : sum local = 7.26755615966e-08, global = -7.65500675678e-09, cumulative = 0.000384642397098
smoothSolver:  Solving for epsilon, Initial residual = 0.000153321159508, Final residual = 1.03797723359e-05, No Iterations 3
smoothSolver:  Solving for k, Initial residual = 0.000227788290413, Final residual = 1.86107065475e-05, No Iterations 3
ExecutionTime = 2.69 s  ClockTime = 3 s

Time = 85

smoothSolver:  Solving for Ux, Initial residual = 3.40048863235e-05, Final residual = 1.7209997983e-06, No Iterations 3
smoothSolver:  Solving for Uy, Initial residual = 0.0310414498847, Final residual = 0.00147815176256, No Iterations 3
smoothSolver:  Solving for Uz, Initial residual = 0.000307386170872, Final residual = 1.35419480851e-05, No Iterations 3
GAMG:  Solving for p, Initial residual = 0.000570967975512, Final residual = 2.47872554014e-05, No Iterations 2
time step continuity errors : sum local = 6.55024143079e-08, global = -8.33484228584e-09, cumulative = 0.000384634062255
smoothSolver:  Solving for epsilon, Initial residual = 0.000145049071211, Final residual = 9.78140836307e-06, No Iterations 3
smoothSolver:  Solving for k, Initial residual = 0.000214948591917, Final residual = 1.74755167548e-05, No Iterations 3
ExecutionTime = 2.71 s  ClockTime = 3 s

Time = 86

smoothSolver:  Solving for Ux, Initial residual = 3.19529188605e-05, Final residual = 1.62442827405e-06, No Iterations 3
smoothSolver:  Solving for Uy, Initial residual = 0.0295866629088, Final residual = 0.00143256050368, No Iterations 3
smoothSolver:  Solving for Uz, Initial residual = 0.000281834749215, Final residual = 1.24507437633e-05, No Iterations 3
GAMG:  Solving for p, Initial residual = 0.000541679611194, Final residual = 2.2915831155e-05, No Iterations 2
time step continuity errors : sum local = 6.05566228084e-08, global = -8.72448740927e-09, cumulative = 0.000384625337768
smoothSolver:  Solving for epsilon, Initial residual = 0.000137111216765, Final residual = 9.21537765096e-06, No Iterations 3
smoothSolver:  Solving for k, Initial residual = 0.000202717988452, Final residual = 1.64025417951e-05, No Iterations 3
ExecutionTime = 2.74 s  ClockTime = 3 s

Time = 87

smoothSolver:  Solving for Ux, Initial residual = 3.0123899999e-05, Final residual = 1.53610289896e-06, No Iterations 3
smoothSolver:  Solving for Uy, Initial residual = 0.0282781782029, Final residual = 0.00138097254153, No Iterations 3
smoothSolver:  Solving for Uz, Initial residual = 0.000261034587887, Final residual = 1.1584626276e-05, No Iterations 3
GAMG:  Solving for p, Initial residual = 0.000514465305048, Final residual = 2.31873724558e-05, No Iterations 2
time step continuity errors : sum local = 6.12726083067e-08, global = -8.542393687e-09, cumulative = 0.000384616795374
smoothSolver:  Solving for epsilon, Initial residual = 0.000129588260414, Final residual = 8.68398256426e-06, No Iterations 3
smoothSolver:  Solving for k, Initial residual = 0.000191200174715, Final residual = 1.53927480945e-05, No Iterations 3
ExecutionTime = 2.78 s  ClockTime = 3 s

Time = 88

smoothSolver:  Solving for Ux, Initial residual = 2.83960803213e-05, Final residual = 1.44838828999e-06, No Iterations 3
smoothSolver:  Solving for Uy, Initial residual = 0.0273855739845, Final residual = 0.00131868540138, No Iterations 3
smoothSolver:  Solving for Uz, Initial residual = 0.000245016819931, Final residual = 1.09287023532e-05, No Iterations 3
GAMG:  Solving for p, Initial residual = 0.000488259728788, Final residual = 2.33463413197e-05, No Iterations 2
time step continuity errors : sum local = 6.16913009166e-08, global = -8.33383962392e-09, cumulative = 0.000384608461535
smoothSolver:  Solving for epsilon, Initial residual = 0.000122518756667, Final residual = 8.19345623936e-06, No Iterations 3
smoothSolver:  Solving for k, Initial residual = 0.000180289134675, Final residual = 1.44434633186e-05, No Iterations 3
ExecutionTime = 2.8 s  ClockTime = 3 s

Time = 89

smoothSolver:  Solving for Ux, Initial residual = 2.67276726213e-05, Final residual = 1.36128274853e-06, No Iterations 3
smoothSolver:  Solving for Uy, Initial residual = 0.0261947886533, Final residual = 0.00123926863896, No Iterations 3
smoothSolver:  Solving for Uz, Initial residual = 0.000231538250999, Final residual = 1.03714286072e-05, No Iterations 3
[...]
smoothSolver:  Solving for epsilon, Initial residual = 2.82588725823e-07, Final residual = 2.19980526658e-08, No Iterations 3
smoothSolver:  Solving for k, Initial residual = 5.30997779723e-07, Final residual = 4.91380158792e-08, No Iterations 3
ExecutionTime = 7.99 s  ClockTime = 9 s

Time = 252

smoothSolver:  Solving for Ux, Initial residual = 1.5022058302e-07, Final residual = 8.4361823943e-09, No Iterations 3
smoothSolver:  Solving for Uy, Initial residual = 0.000220235750652, Final residual = 1.23607245543e-05, No Iterations 3
smoothSolver:  Solving for Uz, Initial residual = 8.00245613185e-07, Final residual = 3.67583479563e-08, No Iterations 3
GAMG:  Solving for p, Initial residual = 8.23438253534e-07, Final residual = 4.63569513499e-08, No Iterations 2
time step continuity errors : sum local = 1.22263365491e-10, global = -1.23871174696e-11, cumulative = 0.000384534237632
smoothSolver:  Solving for epsilon, Initial residual = 2.71804211908e-07, Final residual = 2.1157838371e-08, No Iterations 3
smoothSolver:  Solving for k, Initial residual = 5.10819990758e-07, Final residual = 4.72717127259e-08, No Iterations 3
ExecutionTime = 8.02 s  ClockTime = 9 s

Time = 253

smoothSolver:  Solving for Ux, Initial residual = 1.4455740124e-07, Final residual = 8.11797688861e-09, No Iterations 3
smoothSolver:  Solving for Uy, Initial residual = 0.000212263314625, Final residual = 1.1914371861e-05, No Iterations 3
smoothSolver:  Solving for Uz, Initial residual = 7.70360242093e-07, Final residual = 3.53849481048e-08, No Iterations 3
GAMG:  Solving for p, Initial residual = 7.92779886396e-07, Final residual = 4.46286278015e-08, No Iterations 2
time step continuity errors : sum local = 1.17704976921e-10, global = -1.19191495574e-11, cumulative = 0.000384534225713
smoothSolver:  Solving for epsilon, Initial residual = 2.6142779957e-07, Final residual = 2.03494686645e-08, No Iterations 3
smoothSolver:  Solving for k, Initial residual = 4.91400557767e-07, Final residual = 4.54755055139e-08, No Iterations 3
ExecutionTime = 8.05 s  ClockTime = 9 s

Time = 254

smoothSolver:  Solving for Ux, Initial residual = 1.39104437446e-07, Final residual = 7.81159315592e-09, No Iterations 3
smoothSolver:  Solving for Uy, Initial residual = 0.000204565539758, Final residual = 1.1483308684e-05, No Iterations 3
smoothSolver:  Solving for Uz, Initial residual = 7.41567486704e-07, Final residual = 3.40617988438e-08, No Iterations 3
GAMG:  Solving for p, Initial residual = 7.63236850535e-07, Final residual = 4.29633478782e-08, No Iterations 2
time step continuity errors : sum local = 1.13312868295e-10, global = -1.14686050522e-11, cumulative = 0.000384534214244
smoothSolver:  Solving for epsilon, Initial residual = 2.51444182285e-07, Final residual = 1.95717682254e-08, No Iterations 3
smoothSolver:  Solving for k, Initial residual = 4.72711473286e-07, Final residual = 4.37468055747e-08, No Iterations 3
ExecutionTime = 8.08 s  ClockTime = 9 s

Time = 255

smoothSolver:  Solving for Ux, Initial residual = 1.33854088162e-07, Final residual = 7.5166024881e-09, No Iterations 3
smoothSolver:  Solving for Uy, Initial residual = 0.000197133742204, Final residual = 1.10670594173e-05, No Iterations 3
smoothSolver:  Solving for Uz, Initial residual = 7.13828790942e-07, Final residual = 3.27871248619e-08, No Iterations 3
GAMG:  Solving for p, Initial residual = 7.34770308664e-07, Final residual = 4.13588791536e-08, No Iterations 2
time step continuity errors : sum local = 1.09081149663e-10, global = -1.10348463584e-11, cumulative = 0.00038453420321
smoothSolver:  Solving for epsilon, Initial residual = 2.41838783472e-07, Final residual = 1.88235584849e-08, No Iterations 3
smoothSolver:  Solving for k, Initial residual = 4.54725734843e-07, Final residual = 4.20831194026e-08, No Iterations 3
ExecutionTime = 8.11 s  ClockTime = 9 s

Time = 256

smoothSolver:  Solving for Ux, Initial residual = 1.28798992258e-07, Final residual = 7.2325912069e-09, No Iterations 3
smoothSolver:  Solving for Uy, Initial residual = 0.000189959596839, Final residual = 1.06651610186e-05, No Iterations 3
smoothSolver:  Solving for Uz, Initial residual = 6.87106879965e-07, Final residual = 3.15592096079e-08, No Iterations 3
GAMG:  Solving for p, Initial residual = 7.07342581427e-07, Final residual = 3.98130818492e-08, No Iterations 2
time step continuity errors : sum local = 1.05004178453e-10, global = -1.06172630417e-11, cumulative = 0.000384534192592
smoothSolver:  Solving for epsilon, Initial residual = 2.32597336637e-07, Final residual = 1.81037420025e-08, No Iterations 3
smoothSolver:  Solving for k, Initial residual = 4.37417313177e-07, Final residual = 4.04820408084e-08, No Iterations 3
ExecutionTime = 8.15 s  ClockTime = 9 s

Time = 257

smoothSolver:  Solving for Ux, Initial residual = 1.23932064206e-07, Final residual = 6.95916008122e-09, No Iterations 3
smoothSolver:  Solving for Uy, Initial residual = 0.000183034917186, Final residual = 1.02771842202e-05, No Iterations 3
smoothSolver:  Solving for Uz, Initial residual = 6.61365719855e-07, Final residual = 3.03763936304e-08, No Iterations 3
GAMG:  Solving for p, Initial residual = 6.8091685681e-07, Final residual = 3.83238801652e-08, No Iterations 2
time step continuity errors : sum local = 1.01076477942e-10, global = -1.02152684018e-11, cumulative = 0.000384534182377
smoothSolver:  Solving for epsilon, Initial residual = 2.23706359317e-07, Final residual = 1.74112785771e-08, No Iterations 3
smoothSolver:  Solving for k, Initial residual = 4.20761111944e-07, Final residual = 3.89412527123e-08, No Iterations 3
ExecutionTime = 8.18 s  ClockTime = 9 s

Time = 258

smoothSolver:  Solving for Ux, Initial residual = 1.19246458987e-07, Final residual = 6.69592385295e-09, No Iterations 3
smoothSolver:  Solving for Uy, Initial residual = 0.000176351846936, Final residual = 9.90269735093e-06, No Iterations 3
smoothSolver:  Solving for Uz, Initial residual = 6.36570484393e-07, Final residual = 2.92370730605e-08, No Iterations 3
GAMG:  Solving for p, Initial residual = 6.55457806313e-07, Final residual = 3.68892724875e-08, No Iterations 2
time step continuity errors : sum local = 9.72927692548e-11, global = -9.82830025426e-12, cumulative = 0.000384534172549
smoothSolver:  Solving for epsilon, Initial residual = 2.15152729973e-07, Final residual = 1.67451315506e-08, No Iterations 3
smoothSolver:  Solving for k, Initial residual = 4.04732940639e-07, Final residual = 3.74585237329e-08, No Iterations 3
ExecutionTime = 8.21 s  ClockTime = 9 s

Time = 259

smoothSolver:  Solving for Ux, Initial residual = 1.1473557017e-07, Final residual = 6.44251078032e-09, No Iterations 3
smoothSolver:  Solving for Uy, Initial residual = 0.000169902564951, Final residual = 9.5412529445e-06, No Iterations 3
smoothSolver:  Solving for Uz, Initial residual = 6.12687505069e-07, Final residual = 2.81396979877e-08, No Iterations 3
GAMG:  Solving for p, Initial residual = 6.30931771719e-07, Final residual = 3.5507321212e-08, No Iterations 2
time step continuity errors : sum local = 9.36479416582e-11, global = -9.45579848686e-12, cumulative = 0.000384534163093
smoothSolver:  Solving for epsilon, Initial residual = 2.06923766635e-07, Final residual = 1.61042985778e-08, No Iterations 3
smoothSolver:  Solving for k, Initial residual = 3.89309484031e-07, Final residual = 3.60317139812e-08, No Iterations 3
ExecutionTime = 8.24 s  ClockTime = 9 s

Time = 260

smoothSolver:  Solving for Ux, Initial residual = 1.1039302605e-07, Final residual = 6.19856219647e-09, No Iterations 3
smoothSolver:  Solving for Uy, Initial residual = 0.000163679355542, Final residual = 9.19243507063e-06, No Iterations 3
smoothSolver:  Solving for Uz, Initial residual = 5.89684241978e-07, Final residual = 2.70827707952e-08, No Iterations 3
GAMG:  Solving for p, Initial residual = 6.07305425283e-07, Final residual = 3.4176152905e-08, No Iterations 2
time step continuity errors : sum local = 9.01370547591e-11, global = -9.09723488901e-12, cumulative = 0.000384534153996
smoothSolver:  Solving for epsilon, Initial residual = 1.99007290685e-07, Final residual = 1.54878178742e-08, No Iterations 3
smoothSolver:  Solving for k, Initial residual = 3.74468270755e-07, Final residual = 3.46587325437e-08, No Iterations 3
ExecutionTime = 8.27 s  ClockTime = 9 s

Time = 261

smoothSolver:  Solving for Ux, Initial residual = 1.06212682754e-07, Final residual = 5.96373200705e-09, No Iterations 3
smoothSolver:  Solving for Uy, Initial residual = 0.000157674911854, Final residual = 8.85582650442e-06, No Iterations 3
smoothSolver:  Solving for Uz, Initial residual = 5.6752925456e-07, Final residual = 2.60648444695e-08, No Iterations 3
GAMG:  Solving for p, Initial residual = 5.845468103e-07, Final residual = 3.28939652044e-08, No Iterations 2
time step continuity errors : sum local = 8.67553527774e-11, global = -8.7520990809e-12, cumulative = 0.000384534145244
smoothSolver:  Solving for epsilon, Initial residual = 1.9139159473e-07, Final residual = 1.48947727563e-08, No Iterations 3
smoothSolver:  Solving for k, Initial residual = 3.6018764409e-07, Final residual = 3.3337579228e-08, No Iterations 3
ExecutionTime = 8.3 s  ClockTime = 9 s

Time = 262

smoothSolver:  Solving for Ux, Initial residual = 1.02188606515e-07, Final residual = 5.73768630888e-09, No Iterations 3
smoothSolver:  Solving for Uy, Initial residual = 0.000151881995418, Final residual = 8.53103263218e-06, No Iterations 3
smoothSolver:  Solving for Uz, Initial residual = 5.461921652e-07, Final residual = 2.50845211071e-08, No Iterations 3
GAMG:  Solving for p, Initial residual = 5.6262503213e-07, Final residual = 3.16590128442e-08, No Iterations 2
time step continuity errors : sum local = 8.34982342245e-11, global = -8.41989712526e-12, cumulative = 0.000384534136824
smoothSolver:  Solving for epsilon, Initial residual = 1.84065393813e-07, Final residual = 1.43243069876e-08, No Iterations 3
smoothSolver:  Solving for k, Initial residual = 3.46446733711e-07, Final residual = 3.20663260161e-08, No Iterations 3
ExecutionTime = 8.33 s  ClockTime = 9 s

Time = 263

smoothSolver:  Solving for Ux, Initial residual = 9.83150734388e-08, Final residual = 5.52010308621e-09, No Iterations 3
smoothSolver:  Solving for Uy, Initial residual = 0.000146293675303, Final residual = 8.2176719089e-06, No Iterations 3
smoothSolver:  Solving for Uz, Initial residual = 5.25643634431e-07, Final residual = 2.41404504396e-08, No Iterations 3
GAMG:  Solving for p, Initial residual = 5.41510528043e-07, Final residual = 9.88003058813e-08, No Iterations 1
time step continuity errors : sum local = 2.60578204724e-10, global = 7.96744656461e-11, cumulative = 0.000384534216498
smoothSolver:  Solving for epsilon, Initial residual = 1.76989383398e-07, Final residual = 1.37743297699e-08, No Iterations 3
smoothSolver:  Solving for k, Initial residual = 3.33275133764e-07, Final residual = 3.08478414505e-08, No Iterations 3
ExecutionTime = 8.36 s  ClockTime = 9 s

Time = 264

smoothSolver:  Solving for Ux, Initial residual = 9.38942265628e-08, Final residual = 5.28735145451e-09, No Iterations 3
smoothSolver:  Solving for Uy, Initial residual = 0.000133076066446, Final residual = 7.45962054861e-06, No Iterations 3
smoothSolver:  Solving for Uz, Initial residual = 4.95477050501e-07, Final residual = 2.2860940811e-08, No Iterations 3
GAMG:  Solving for p, Initial residual = 5.70889075969e-07, Final residual = 3.00210591569e-08, No Iterations 2
time step continuity errors : sum local = 7.91782391446e-11, global = 1.485136042e-11, cumulative = 0.00038453423135
smoothSolver:  Solving for epsilon, Initial residual = 1.7002480957e-07, Final residual = 1.32262051875e-08, No Iterations 3
smoothSolver:  Solving for k, Initial residual = 3.20291308382e-07, Final residual = 2.96428999343e-08, No Iterations 3
ExecutionTime = 8.39 s  ClockTime = 9 s

Time = 265

smoothSolver:  Solving for Ux, Initial residual = 9.09799473383e-08, Final residual = 5.11456124511e-09, No Iterations 3
smoothSolver:  Solving for Uy, Initial residual = 0.000136003542873, Final residual = 7.64312586754e-06, No Iterations 3
smoothSolver:  Solving for Uz, Initial residual = 4.87304437179e-07, Final residual = 2.23535859857e-08, No Iterations 3
GAMG:  Solving for p, Initial residual = 5.30989336068e-07, Final residual = 2.77908660521e-08, No Iterations 2
time step continuity errors : sum local = 7.32962274455e-11, global = 5.58064728972e-12, cumulative = 0.00038453423693
smoothSolver:  Solving for epsilon, Initial residual = 1.63593506761e-07, Final residual = 1.27269150828e-08, No Iterations 3
smoothSolver:  Solving for k, Initial residual = 3.08141416919e-07, Final residual = 2.85201482228e-08, No Iterations 3
ExecutionTime = 8.42 s  ClockTime = 9 s

Time = 266

smoothSolver:  Solving for Ux, Initial residual = 8.81089515243e-08, Final residual = 4.93673357037e-09, No Iterations 3
smoothSolver:  Solving for Uy, Initial residual = 0.000136706659878, Final residual = 7.68262493485e-06, No Iterations 3
smoothSolver:  Solving for Uz, Initial residual = 4.75623609704e-07, Final residual = 2.17577645114e-08, No Iterations 3
GAMG:  Solving for p, Initial residual = 4.84924192136e-07, Final residual = 8.5642910496e-08, No Iterations 1
time step continuity errors : sum local = 2.25876347379e-10, global = 7.31124174542e-11, cumulative = 0.000384534310043
smoothSolver:  Solving for epsilon, Initial residual = 1.57457698867e-07, Final residual = 1.22532396445e-08, No Iterations 3
smoothSolver:  Solving for k, Initial residual = 2.96578978045e-07, Final residual = 2.7452148619e-08, No Iterations 3
ExecutionTime = 8.46 s  ClockTime = 9 s

Time = 267

smoothSolver:  Solving for Ux, Initial residual = 8.40596851653e-08, Final residual = 4.72444842265e-09, No Iterations 3
smoothSolver:  Solving for Uy, Initial residual = 0.000123977717402, Final residual = 6.96151282819e-06, No Iterations 3
smoothSolver:  Solving for Uz, Initial residual = 4.47637206364e-07, Final residual = 2.06104666265e-08, No Iterations 3
GAMG:  Solving for p, Initial residual = 4.91018954494e-07, Final residual = 9.37873990081e-08, No Iterations 1
time step continuity errors : sum local = 2.47356818531e-10, global = 5.23297725585e-11, cumulative = 0.000384534362372
smoothSolver:  Solving for epsilon, Initial residual = 1.5129617696e-07, Final residual = 1.17716058663e-08, No Iterations 3
smoothSolver:  Solving for k, Initial residual = 2.85098453011e-07, Final residual = 2.63888006991e-08, No Iterations 3
ExecutionTime = 8.49 s  ClockTime = 9 s

Time = 268

smoothSolver:  Solving for Ux, Initial residual = 8.04588578957e-08, Final residual = 4.51309471395e-09, No Iterations 3
smoothSolver:  Solving for Uy, Initial residual = 0.000114652311159, Final residual = 6.40292670741e-06, No Iterations 3
smoothSolver:  Solving for Uz, Initial residual = 4.24842722711e-07, Final residual = 1.95808363968e-08, No Iterations 3
GAMG:  Solving for p, Initial residual = 5.09273485746e-07, Final residual = 2.65974318714e-08, No Iterations 2
time step continuity errors : sum local = 7.01486094847e-11, global = 1.54879216467e-11, cumulative = 0.00038453437786
smoothSolver:  Solving for epsilon, Initial residual = 1.45437968575e-07, Final residual = 1.13101598656e-08, No Iterations 3
smoothSolver:  Solving for k, Initial residual = 2.74053164588e-07, Final residual = 2.53633742968e-08, No Iterations 3
ExecutionTime = 8.52 s  ClockTime = 9 s

Time = 269

smoothSolver:  Solving for Ux, Initial residual = 7.80643724319e-08, Final residual = 4.37910016807e-09, No Iterations 3
smoothSolver:  Solving for Uy, Initial residual = 0.000118971065468, Final residual = 6.67870675964e-06, No Iterations 3
smoothSolver:  Solving for Uz, Initial residual = 4.20979197672e-07, Final residual = 1.92706738677e-08, No Iterations 3
GAMG:  Solving for p, Initial residual = 4.5367775446e-07, Final residual = 8.83445790601e-08, No Iterations 1
time step continuity errors : sum local = 2.33001647687e-10, global = 4.14562762884e-11, cumulative = 0.000384534419317
smoothSolver:  Solving for epsilon, Initial residual = 1.39964343577e-07, Final residual = 1.08878052825e-08, No Iterations 3
smoothSolver:  Solving for k, Initial residual = 2.63710800198e-07, Final residual = 2.44097012562e-08, No Iterations 3
ExecutionTime = 8.55 s  ClockTime = 9 s

Time = 270

smoothSolver:  Solving for Ux, Initial residual = 7.50197465009e-08, Final residual = 4.20020348117e-09, No Iterations 3
smoothSolver:  Solving for Uy, Initial residual = 0.000111036013132, Final residual = 6.21639259342e-06, No Iterations 3
smoothSolver:  Solving for Uz, Initial residual = 4.01291309325e-07, Final residual = 1.84019924566e-08, No Iterations 3
GAMG:  Solving for p, Initial residual = 4.44455737885e-07, Final residual = 8.60670874788e-08, No Iterations 1
time step continuity errors : sum local = 2.26994921573e-10, global = 4.04897585597e-11, cumulative = 0.000384534459806
smoothSolver:  Solving for epsilon, Initial residual = 1.34640287926e-07, Final residual = 1.04724831525e-08, No Iterations 3
smoothSolver:  Solving for k, Initial residual = 2.53642627525e-07, Final residual = 2.3477482142e-08, No Iterations 3
ExecutionTime = 8.58 s  ClockTime = 9 s

Time = 271

smoothSolver:  Solving for Ux, Initial residual = 7.19839812102e-08, Final residual = 4.03272843714e-09, No Iterations 3
smoothSolver:  Solving for Uy, Initial residual = 0.000104502137373, Final residual = 5.8515768595e-06, No Iterations 3
smoothSolver:  Solving for Uz, Initial residual = 3.8333404822e-07, Final residual = 1.76119579827e-08, No Iterations 3
GAMG:  Solving for p, Initial residual = 4.45145954921e-07, Final residual = 8.73290686458e-08, No Iterations 1
time step continuity errors : sum local = 2.30323263967e-10, global = 3.09014003404e-11, cumulative = 0.000384534490708
smoothSolver:  Solving for epsilon, Initial residual = 1.29453684966e-07, Final residual = 1.00682638489e-08, No Iterations 3
smoothSolver:  Solving for k, Initial residual = 2.43896784385e-07, Final residual = 2.25754924092e-08, No Iterations 3
ExecutionTime = 8.61 s  ClockTime = 9 s

Time = 272

smoothSolver:  Solving for Ux, Initial residual = 6.92209237214e-08, Final residual = 9.70307555965e-09, No Iterations 2
smoothSolver:  Solving for Uy, Initial residual = 0.000100938668651, Final residual = 5.6620985256e-06, No Iterations 3
smoothSolver:  Solving for Uz, Initial residual = 3.68624059538e-07, Final residual = 1.69412575853e-08, No Iterations 3
GAMG:  Solving for p, Initial residual = 4.12984046427e-07, Final residual = 7.92057693365e-08, No Iterations 1
time step continuity errors : sum local = 2.08898682282e-10, global = 2.99523873137e-11, cumulative = 0.00038453452066
smoothSolver:  Solving for epsilon, Initial residual = 1.24577872223e-07, Final residual = 9.70340222936e-09, No Iterations 3
smoothSolver:  Solving for k, Initial residual = 2.34622262845e-07, Final residual = 2.1730256201e-08, No Iterations 3
ExecutionTime = 8.64 s  ClockTime = 9 s

Time = 273

smoothSolver:  Solving for Ux, Initial residual = 6.70125343514e-08, Final residual = 9.41574823677e-09, No Iterations 2
smoothSolver:  Solving for Uy, Initial residual = 9.74242063889e-05, Final residual = 5.43986011561e-06, No Iterations 3
smoothSolver:  Solving for Uz, Initial residual = 3.48501037065e-07, Final residual = 1.59719024801e-08, No Iterations 3
GAMG:  Solving for p, Initial residual = 3.97869890749e-07, Final residual = 7.53097234092e-08, No Iterations 1
time step continuity errors : sum local = 1.98623135836e-10, global = 3.04432890671e-11, cumulative = 0.000384534551103
smoothSolver:  Solving for epsilon, Initial residual = 1.19834451493e-07, Final residual = 9.34729640277e-09, No Iterations 3
smoothSolver:  Solving for k, Initial residual = 2.25686617674e-07, Final residual = 2.09142010378e-08, No Iterations 3
ExecutionTime = 8.67 s  ClockTime = 9 s


SIMPLE solution converged in 273 iterations

End

Finalising parallel run
